*SPEF "ieee 1481-1999"
*DESIGN "gcd"
*DATE "22:25:23 Saturday February 14, 2026"
*VENDOR "The OpenROAD Project"
*PROGRAM "OpenROAD"
*VERSION "26Q1-951-g6975124cf2"
*DESIGN_FLOW "NAME_SCOPE LOCAL" "PIN_CAP NONE"
*DIVIDER /
*DELIMITER :
*BUS_DELIMITER []
*T_UNIT 1 NS
*C_UNIT 1 PF
*R_UNIT 1 OHM
*L_UNIT 1 HENRY

*NAME_MAP
*1 _000_
*2 _001_
*3 _002_
*4 _003_
*5 _004_
*6 _005_
*7 _006_
*8 _007_
*9 _008_
*10 _009_
*11 _010_
*12 _011_
*13 _012_
*14 _013_
*15 _014_
*16 _015_
*17 _016_
*18 _017_
*19 _018_
*20 _019_
*21 _020_
*22 _021_
*23 _022_
*24 _023_
*25 _024_
*26 _025_
*27 _026_
*28 _027_
*29 _028_
*30 _029_
*31 _030_
*32 _031_
*33 _032_
*34 _033_
*35 _034_
*36 _035_
*37 _036_
*38 req_msg[24]
*39 req_msg[23]
*40 req_msg[22]
*41 _040_
*42 _041_
*43 _042_
*44 _043_
*45 _044_
*46 _045_
*47 _046_
*48 _047_
*49 _048_
*50 _049_
*51 _050_
*52 _051_
*53 _052_
*54 _053_
*55 _054_
*56 _055_
*57 _056_
*58 _057_
*59 _058_
*60 _059_
*61 _060_
*62 _061_
*63 _062_
*64 _063_
*65 req_msg[21]
*66 _065_
*67 _066_
*68 req_msg[20]
*69 _068_
*70 _069_
*71 _070_
*72 _071_
*73 req_msg[1]
*74 _073_
*75 _074_
*76 _075_
*77 _076_
*78 _077_
*79 _078_
*80 _079_
*81 _080_
*82 _081_
*83 _082_
*84 _083_
*85 _084_
*86 _085_
*87 _086_
*88 _087_
*89 _088_
*90 _089_
*91 _090_
*92 _091_
*93 _092_
*94 _093_
*95 _094_
*96 _095_
*97 _096_
*98 _097_
*99 _098_
*100 _099_
*101 _100_
*102 _101_
*103 _102_
*104 _103_
*105 _104_
*106 _105_
*107 _106_
*108 req_msg[19]
*109 _108_
*110 _109_
*111 _110_
*112 _111_
*113 _112_
*114 _113_
*115 _114_
*116 _115_
*117 _116_
*118 _117_
*119 _118_
*120 _119_
*121 _120_
*122 _121_
*123 _122_
*124 _123_
*125 _124_
*126 _125_
*127 _126_
*128 _127_
*129 _128_
*130 _129_
*131 _130_
*132 _131_
*133 _132_
*134 _133_
*135 _134_
*136 _135_
*137 _136_
*138 _137_
*139 _138_
*140 _139_
*141 _140_
*142 _141_
*143 _142_
*144 _143_
*145 _144_
*146 _145_
*147 _146_
*148 _147_
*149 _148_
*150 _149_
*151 _150_
*152 _151_
*153 _152_
*154 _153_
*155 _154_
*156 _155_
*157 _156_
*158 _157_
*159 _158_
*160 _159_
*161 _160_
*162 _161_
*163 _162_
*164 _163_
*165 _164_
*166 _165_
*167 _166_
*168 _167_
*169 _168_
*170 _169_
*171 _170_
*172 _171_
*173 _172_
*174 _173_
*175 _174_
*176 _175_
*177 _176_
*178 _177_
*179 _178_
*180 _179_
*181 _180_
*182 _181_
*183 _182_
*184 _183_
*185 _184_
*186 _185_
*187 _186_
*188 _187_
*189 _188_
*190 _189_
*191 _190_
*192 _191_
*193 _192_
*194 _193_
*195 _194_
*196 _195_
*197 _196_
*198 _197_
*199 _198_
*200 _199_
*201 _200_
*202 _201_
*203 _202_
*204 _203_
*205 _204_
*206 _205_
*207 _206_
*208 _207_
*209 _208_
*210 _209_
*211 _210_
*212 _211_
*213 _212_
*214 _213_
*215 _214_
*216 _215_
*217 _216_
*218 _217_
*219 _218_
*220 _219_
*221 _220_
*222 _221_
*223 _222_
*224 _223_
*225 _224_
*226 _225_
*227 _226_
*228 _227_
*229 _228_
*230 _229_
*231 _230_
*232 _231_
*233 _232_
*234 _233_
*235 _234_
*236 _235_
*237 _236_
*238 _237_
*239 _238_
*240 _239_
*241 _240_
*242 _241_
*243 _242_
*244 _243_
*245 _244_
*246 _245_
*247 _246_
*248 _247_
*249 _248_
*250 _249_
*251 _250_
*252 _251_
*253 _252_
*254 _253_
*255 _254_
*256 _255_
*257 _256_
*258 _257_
*259 _258_
*260 _259_
*261 _260_
*262 _261_
*263 _262_
*264 _263_
*265 _264_
*266 _265_
*267 _266_
*268 _267_
*269 _268_
*270 _269_
*271 _270_
*272 _271_
*273 _272_
*274 _273_
*275 _274_
*276 _275_
*277 _276_
*278 _277_
*279 _278_
*280 _279_
*281 _280_
*282 _281_
*283 _282_
*284 _283_
*285 _284_
*286 _285_
*287 _286_
*288 _287_
*289 _288_
*290 _289_
*291 _290_
*292 _291_
*293 _292_
*294 _293_
*295 _294_
*296 _295_
*297 _296_
*298 _297_
*299 _298_
*300 _299_
*301 _300_
*302 _301_
*303 _302_
*304 _303_
*305 req_msg[18]
*306 _305_
*307 _306_
*308 req_msg[17]
*309 _308_
*310 _309_
*311 req_msg[16]
*312 _311_
*313 _312_
*314 req_msg[15]
*315 _314_
*316 req_msg[14]
*317 req_msg[13]
*318 _317_
*319 _318_
*320 _319_
*321 _320_
*322 _321_
*323 _322_
*324 _323_
*325 _324_
*326 _325_
*327 _326_
*328 _327_
*329 _328_
*330 _329_
*331 _330_
*332 _331_
*333 _332_
*334 _333_
*335 _334_
*336 _335_
*337 _336_
*338 _337_
*339 _338_
*340 _339_
*341 _340_
*342 _341_
*343 _342_
*344 _343_
*345 _344_
*346 _345_
*347 _346_
*348 _347_
*349 _348_
*350 _349_
*351 _350_
*352 _351_
*353 _352_
*354 _353_
*355 _354_
*356 _355_
*357 _356_
*358 _357_
*359 _358_
*360 _359_
*361 _360_
*362 _361_
*363 _362_
*364 _363_
*365 _364_
*366 _365_
*367 _366_
*368 _367_
*369 _368_
*370 _369_
*371 _370_
*372 _371_
*373 _372_
*374 _373_
*375 _374_
*376 _375_
*377 _376_
*378 _377_
*379 _378_
*380 _379_
*381 _380_
*382 _381_
*383 _382_
*384 _383_
*385 _384_
*386 _385_
*387 _386_
*388 _387_
*389 _388_
*390 _389_
*391 _390_
*392 _391_
*393 _392_
*394 _393_
*395 _394_
*396 _395_
*397 _396_
*398 _397_
*399 _398_
*400 _399_
*401 _400_
*402 req_msg[12]
*403 _402_
*404 _403_
*405 _404_
*406 req_msg[11]
*407 _406_
*408 _407_
*409 _408_
*410 _409_
*411 req_msg[10]
*412 _411_
*413 _412_
*414 _413_
*415 _414_
*416 _415_
*417 req_msg[0]
*418 _417_
*419 _418_
*420 _419_
*421 _420_
*422 _421_
*423 _422_
*424 _423_
*425 _424_
*426 _425_
*427 _426_
*428 _427_
*429 _428_
*430 _429_
*431 _430_
*432 _431_
*433 _432_
*434 _433_
*435 _434_
*436 _435_
*437 _436_
*438 _437_
*439 _438_
*440 _439_
*441 _440_
*442 _441_
*443 _442_
*444 _443_
*445 _444_
*446 _445_
*447 _446_
*448 _447_
*449 _448_
*450 _449_
*451 _450_
*452 _451_
*453 _452_
*454 _453_
*455 _454_
*456 _455_
*457 _456_
*458 _457_
*459 _458_
*460 _459_
*461 _460_
*462 _461_
*463 _462_
*464 _463_
*465 _464_
*466 _465_
*467 _466_
*468 _467_
*469 _468_
*470 _469_
*471 _470_
*472 _471_
*473 _472_
*474 _473_
*475 _474_
*476 _475_
*477 _476_
*478 _477_
*479 _478_
*480 _479_
*481 _480_
*482 _481_
*483 _482_
*484 _483_
*485 clk
*486 ctrl\.state\.out\[1\]
*487 ctrl\.state\.out\[2\]
*488 dpath\.a_lt_b\$in0\[0\]
*489 dpath\.a_lt_b\$in0\[10\]
*490 dpath\.a_lt_b\$in0\[11\]
*491 dpath\.a_lt_b\$in0\[12\]
*492 dpath\.a_lt_b\$in0\[13\]
*493 dpath\.a_lt_b\$in0\[14\]
*494 dpath\.a_lt_b\$in0\[15\]
*495 dpath\.a_lt_b\$in0\[1\]
*496 dpath\.a_lt_b\$in0\[2\]
*497 dpath\.a_lt_b\$in0\[3\]
*498 dpath\.a_lt_b\$in0\[4\]
*499 dpath\.a_lt_b\$in0\[5\]
*500 dpath\.a_lt_b\$in0\[6\]
*501 dpath\.a_lt_b\$in0\[7\]
*502 dpath\.a_lt_b\$in0\[8\]
*503 dpath\.a_lt_b\$in0\[9\]
*504 dpath\.a_lt_b\$in1\[0\]
*505 dpath\.a_lt_b\$in1\[10\]
*506 dpath\.a_lt_b\$in1\[11\]
*507 dpath\.a_lt_b\$in1\[12\]
*508 dpath\.a_lt_b\$in1\[13\]
*509 dpath\.a_lt_b\$in1\[14\]
*510 dpath\.a_lt_b\$in1\[15\]
*511 dpath\.a_lt_b\$in1\[1\]
*512 dpath\.a_lt_b\$in1\[2\]
*513 dpath\.a_lt_b\$in1\[3\]
*514 dpath\.a_lt_b\$in1\[4\]
*515 dpath\.a_lt_b\$in1\[5\]
*516 dpath\.a_lt_b\$in1\[6\]
*517 dpath\.a_lt_b\$in1\[7\]
*518 dpath\.a_lt_b\$in1\[8\]
*519 dpath\.a_lt_b\$in1\[9\]
*520 net1
*521 net2
*522 net3
*523 net4
*524 net5
*525 net6
*526 net7
*527 net8
*528 net9
*529 net10
*530 net11
*531 net12
*532 net13
*533 net14
*534 net15
*535 net16
*536 net17
*537 net18
*538 net19
*539 net20
*540 net21
*541 net22
*542 net23
*543 net24
*544 net25
*545 net26
*546 net27
*547 net28
*548 net29
*549 net30
*550 net31
*551 net32
*552 net36
*553 net33
*554 net34
*555 net37
*556 net38
*557 net39
*558 net40
*559 net41
*560 net42
*561 net43
*562 net44
*563 net45
*564 net46
*565 net47
*566 net48
*567 net49
*568 net50
*569 net51
*570 net52
*571 net35
*572 net53
*575 req_msg[25]
*576 req_msg[26]
*577 req_msg[27]
*578 req_msg[28]
*579 req_msg[29]
*580 req_msg[2]
*581 req_msg[30]
*582 req_msg[31]
*583 req_msg[3]
*584 req_msg[4]
*585 req_msg[5]
*586 req_msg[6]
*587 req_msg[7]
*588 req_msg[8]
*589 req_msg[9]
*590 req_val
*591 reset
*592 resp_rdy
*593 req_rdy
*594 resp_msg[0]
*595 resp_msg[10]
*596 resp_msg[11]
*597 resp_msg[12]
*598 resp_msg[13]
*599 resp_msg[14]
*600 resp_msg[15]
*601 resp_msg[1]
*602 resp_msg[2]
*603 resp_msg[3]
*604 resp_msg[4]
*605 resp_msg[5]
*606 resp_msg[6]
*607 resp_msg[7]
*608 resp_msg[8]
*609 resp_msg[9]
*610 resp_val
*611 net148
*612 net149
*613 net150
*614 net151
*615 net154
*616 net155
*617 net156
*618 net158
*619 net159
*620 net160
*621 net161
*622 net162
*623 net163
*624 net273
*625 net165
*626 net166
*627 net315
*628 net168
*629 net169
*630 net171
*631 net172
*632 net173
*633 net181
*634 net175
*635 net176
*636 net177
*637 net178
*638 net179
*639 net180
*640 net195
*641 net182
*642 net183
*643 net184
*644 net188
*645 net185
*646 net187
*647 net186
*648 net189
*649 net190
*650 net191
*651 net193
*652 net192
*653 net194
*654 net207
*655 net196
*656 net198
*657 net197
*658 net199
*659 net200
*660 net201
*661 net202
*662 net203
*663 net204
*664 net205
*665 net206
*666 clknet_2_2__leaf_clk
*667 clknet_2_3__leaf_clk
*668 net215
*669 net208
*670 net209
*671 net210
*672 net211
*673 net212
*674 net213
*675 net214
*676 net216
*677 clknet_2_1__leaf_clk
*678 net217
*679 net218
*680 net221
*681 net219
*682 net220
*683 clknet_2_0__leaf_clk
*684 net222
*685 net223
*686 net224
*687 net225
*688 net226
*689 net227
*690 net228
*691 net229
*692 net231
*693 net230
*694 net240
*695 net232
*696 net233
*697 net234
*698 net235
*699 net236
*700 net237
*701 net238
*702 net239
*703 clknet_0_clk
*704 net147
*705 net152
*706 net153
*707 net157
*708 net164
*709 net174
*710 net241
*711 net242
*712 net257
*713 net258
*714 net268
*715 net269
*716 net270
*717 net274
*718 net276
*719 net277
*720 net278
*721 net279
*722 net281
*723 net287
*724 net288
*725 net289
*726 net290
*727 net298
*728 net301
*729 net302
*730 net303
*731 net304
*732 net309
*733 net310
*734 net311
*735 net312
*736 net313
*737 net316
*738 net331
*739 net332
*740 net339
*741 net352
*742 _484_
*743 input17
*744 input16
*745 input15
*746 _488_
*747 _489_
*748 _490_
*749 _491_
*750 _492_
*751 _493_
*752 _494_
*753 _495_
*754 _496_
*755 _497_
*756 _498_
*757 _499_
*758 _500_
*759 _501_
*760 _502_
*761 _503_
*762 _504_
*763 _505_
*764 _506_
*765 _507_
*766 _508_
*767 _509_
*768 _510_
*769 _511_
*770 input14
*771 _513_
*772 _514_
*773 _515_
*774 input13
*775 _517_
*776 _518_
*777 _519_
*778 _520_
*779 _521_
*780 _522_
*781 _523_
*782 _524_
*783 input12
*784 _526_
*785 _527_
*786 _528_
*787 _529_
*788 _530_
*789 _531_
*790 _532_
*791 _533_
*792 _534_
*793 _535_
*794 _536_
*795 _537_
*796 _538_
*797 _539_
*798 _540_
*799 _541_
*800 _542_
*801 _543_
*802 _544_
*803 _545_
*804 _546_
*805 _547_
*806 _548_
*807 _549_
*808 _550_
*809 _551_
*810 _552_
*811 _553_
*812 _554_
*813 _555_
*814 _556_
*815 _557_
*816 _558_
*817 _559_
*818 _560_
*819 _561_
*820 _562_
*821 _563_
*822 input11
*823 _565_
*824 _566_
*825 _567_
*826 _568_
*827 _569_
*828 _570_
*829 _571_
*830 _572_
*831 _573_
*832 _574_
*833 _575_
*834 _576_
*835 _577_
*836 _578_
*837 _579_
*838 _580_
*839 _581_
*840 _582_
*841 _583_
*842 _584_
*843 _585_
*844 _586_
*845 _587_
*846 _588_
*847 _589_
*848 _590_
*849 _591_
*850 _592_
*851 _593_
*852 _594_
*853 _595_
*854 _596_
*855 _597_
*856 _598_
*857 _599_
*858 _600_
*859 _601_
*860 _602_
*861 _603_
*862 _604_
*863 _605_
*864 _606_
*865 _607_
*866 _608_
*867 _609_
*868 _610_
*869 _611_
*870 _612_
*871 _613_
*872 _614_
*873 _615_
*874 _616_
*875 _617_
*876 _618_
*877 _619_
*878 _620_
*879 _621_
*880 _622_
*881 _623_
*882 _624_
*883 _625_
*884 _626_
*885 _627_
*886 _628_
*887 _629_
*888 _630_
*889 _631_
*890 _632_
*891 _633_
*892 _634_
*893 _635_
*894 _636_
*895 _637_
*896 _638_
*897 _639_
*898 _640_
*899 _641_
*900 _642_
*901 _643_
*902 _644_
*903 _645_
*904 _646_
*905 _647_
*906 _648_
*907 _649_
*908 _650_
*909 _651_
*910 _652_
*911 _653_
*912 _654_
*913 _655_
*914 _656_
*915 _657_
*916 _658_
*917 _659_
*918 _660_
*919 _661_
*920 _662_
*921 _663_
*922 _664_
*923 _665_
*924 _666_
*925 _667_
*926 _668_
*927 _669_
*928 _670_
*929 _671_
*930 _672_
*931 _673_
*932 _674_
*933 _675_
*934 _676_
*935 _677_
*936 _678_
*937 _679_
*938 _680_
*939 _681_
*940 _682_
*941 _683_
*942 _684_
*943 _685_
*944 _686_
*945 _687_
*946 _688_
*947 _689_
*948 _690_
*949 _691_
*950 _692_
*951 _693_
*952 _694_
*953 _695_
*954 _696_
*955 _697_
*956 _698_
*957 _699_
*958 _700_
*959 _701_
*960 _702_
*961 _703_
*962 _704_
*963 _705_
*964 _706_
*965 _707_
*966 _708_
*967 _709_
*968 _710_
*969 _711_
*970 _712_
*971 _713_
*972 _714_
*973 _715_
*974 _716_
*975 _717_
*976 _718_
*977 _719_
*978 _720_
*979 _721_
*980 _722_
*981 _723_
*982 _724_
*983 _725_
*984 _726_
*985 _727_
*986 _728_
*987 _729_
*988 _730_
*989 _731_
*990 _732_
*991 _733_
*992 _734_
*993 _735_
*994 _736_
*995 _737_
*996 _738_
*997 _739_
*998 _740_
*999 _741_
*1000 _742_
*1001 _743_
*1002 _744_
*1003 _745_
*1004 _746_
*1005 _747_
*1006 _748_
*1007 _749_
*1008 _750_
*1009 _751_
*1010 _752_
*1011 _753_
*1012 _754_
*1013 _755_
*1014 _756_
*1015 _757_
*1016 _758_
*1017 _759_
*1018 _760_
*1019 _761_
*1020 _762_
*1021 _763_
*1022 _764_
*1023 _765_
*1024 _766_
*1025 _767_
*1026 _768_
*1027 _769_
*1028 _770_
*1029 _771_
*1030 input10
*1031 _773_
*1032 _774_
*1033 input9
*1034 _776_
*1035 _777_
*1036 input8
*1037 _779_
*1038 _780_
*1039 input7
*1040 _782_
*1041 input6
*1042 input5
*1043 _785_
*1044 _786_
*1045 _787_
*1046 _788_
*1047 _789_
*1048 _790_
*1049 _791_
*1050 _792_
*1051 _793_
*1052 _794_
*1053 _795_
*1054 _796_
*1055 _797_
*1056 _798_
*1057 _799_
*1058 _800_
*1059 _801_
*1060 _802_
*1061 _803_
*1062 _804_
*1063 _805_
*1064 _806_
*1065 _807_
*1066 _808_
*1067 _809_
*1068 _810_
*1069 _811_
*1070 _812_
*1071 _813_
*1072 _814_
*1073 _815_
*1074 _816_
*1075 _817_
*1076 _818_
*1077 _819_
*1078 _820_
*1079 _821_
*1080 _822_
*1081 _823_
*1082 _824_
*1083 _825_
*1084 _826_
*1085 _827_
*1086 _828_
*1087 _829_
*1088 _830_
*1089 _831_
*1090 _832_
*1091 _833_
*1092 _834_
*1093 _835_
*1094 _836_
*1095 _837_
*1096 _838_
*1097 _839_
*1098 _840_
*1099 _841_
*1100 _842_
*1101 _843_
*1102 _844_
*1103 _845_
*1104 _846_
*1105 _847_
*1106 _848_
*1107 _849_
*1108 _850_
*1109 _851_
*1110 _852_
*1111 _853_
*1112 _854_
*1113 _855_
*1114 _856_
*1115 _857_
*1116 _858_
*1117 _859_
*1118 _860_
*1119 _861_
*1120 _862_
*1121 _863_
*1122 _864_
*1123 _865_
*1124 _866_
*1125 _867_
*1126 _868_
*1127 _869_
*1128 _870_
*1129 _871_
*1130 _872_
*1131 _873_
*1132 _874_
*1133 _875_
*1134 _876_
*1135 _877_
*1136 _878_
*1137 _879_
*1138 _880_
*1139 _881_
*1140 _882_
*1141 _883_
*1142 _884_
*1143 input4
*1144 _886_
*1145 _887_
*1146 _888_
*1147 input3
*1148 _890_
*1149 _891_
*1150 _892_
*1151 _893_
*1152 _894_
*1153 _895_
*1154 input2
*1155 _897_
*1156 _898_
*1157 _899_
*1158 _900_
*1159 _901_
*1160 _902_
*1161 _903_
*1162 input1
*1163 _905_
*1164 _906_
*1165 _907_
*1166 _908_
*1167 _909_
*1168 _910_
*1169 _911_
*1170 _912_
*1171 _913_
*1172 _914_
*1173 _915_
*1174 _916_
*1175 _917_
*1176 _918_
*1177 _919_
*1178 _920_
*1179 _921_
*1180 _922_
*1181 _923_
*1182 _924_
*1183 _925_
*1184 _926_
*1185 _927_
*1186 _928_
*1187 _929_
*1188 _930_
*1189 _931_
*1190 _932_
*1191 _933_
*1192 _934_
*1193 _935_
*1194 _936_
*1195 _937_
*1196 _938_
*1197 _939_
*1198 _940_
*1199 _941_
*1200 _942_
*1201 _943_
*1202 _944_
*1203 _945_
*1204 _946_
*1205 _947_
*1206 _948_
*1207 _949_
*1208 ctrl\.state\.out\[0\]\$_DFF_P_
*1209 ctrl\.state\.out\[1\]\$_DFF_P_
*1210 ctrl\.state\.out\[2\]\$_DFF_P_
*1211 dpath\.a_reg\.out\[0\]\$_DFFE_PP_
*1212 dpath\.a_reg\.out\[10\]\$_DFFE_PP_
*1213 dpath\.a_reg\.out\[11\]\$_DFFE_PP_
*1214 dpath\.a_reg\.out\[12\]\$_DFFE_PP_
*1215 dpath\.a_reg\.out\[13\]\$_DFFE_PP_
*1216 dpath\.a_reg\.out\[14\]\$_DFFE_PP_
*1217 dpath\.a_reg\.out\[15\]\$_DFFE_PP_
*1218 dpath\.a_reg\.out\[1\]\$_DFFE_PP_
*1219 dpath\.a_reg\.out\[2\]\$_DFFE_PP_
*1220 dpath\.a_reg\.out\[3\]\$_DFFE_PP_
*1221 dpath\.a_reg\.out\[4\]\$_DFFE_PP_
*1222 dpath\.a_reg\.out\[5\]\$_DFFE_PP_
*1223 dpath\.a_reg\.out\[6\]\$_DFFE_PP_
*1224 dpath\.a_reg\.out\[7\]\$_DFFE_PP_
*1225 dpath\.a_reg\.out\[8\]\$_DFFE_PP_
*1226 dpath\.a_reg\.out\[9\]\$_DFFE_PP_
*1227 dpath\.b_reg\.out\[0\]\$_DFFE_PP_
*1228 dpath\.b_reg\.out\[10\]\$_DFFE_PP_
*1229 dpath\.b_reg\.out\[11\]\$_DFFE_PP_
*1230 dpath\.b_reg\.out\[12\]\$_DFFE_PP_
*1231 dpath\.b_reg\.out\[13\]\$_DFFE_PP_
*1232 dpath\.b_reg\.out\[14\]\$_DFFE_PP_
*1233 dpath\.b_reg\.out\[15\]\$_DFFE_PP_
*1234 dpath\.b_reg\.out\[1\]\$_DFFE_PP_
*1235 dpath\.b_reg\.out\[2\]\$_DFFE_PP_
*1236 dpath\.b_reg\.out\[3\]\$_DFFE_PP_
*1237 dpath\.b_reg\.out\[4\]\$_DFFE_PP_
*1238 dpath\.b_reg\.out\[5\]\$_DFFE_PP_
*1239 dpath\.b_reg\.out\[6\]\$_DFFE_PP_
*1240 dpath\.b_reg\.out\[7\]\$_DFFE_PP_
*1241 dpath\.b_reg\.out\[8\]\$_DFFE_PP_
*1242 dpath\.b_reg\.out\[9\]\$_DFFE_PP_
*1243 PHY_EDGE_ROW_0_Right_0
*1244 PHY_EDGE_ROW_1_Right_1
*1245 PHY_EDGE_ROW_2_Right_2
*1246 PHY_EDGE_ROW_3_Right_3
*1247 PHY_EDGE_ROW_4_Right_4
*1248 PHY_EDGE_ROW_5_Right_5
*1249 PHY_EDGE_ROW_6_Right_6
*1250 PHY_EDGE_ROW_7_Right_7
*1251 PHY_EDGE_ROW_8_Right_8
*1252 PHY_EDGE_ROW_9_Right_9
*1253 PHY_EDGE_ROW_10_Right_10
*1254 PHY_EDGE_ROW_11_Right_11
*1255 PHY_EDGE_ROW_12_Right_12
*1256 PHY_EDGE_ROW_13_Right_13
*1257 PHY_EDGE_ROW_14_Right_14
*1258 PHY_EDGE_ROW_15_Right_15
*1259 PHY_EDGE_ROW_16_Right_16
*1260 PHY_EDGE_ROW_17_Right_17
*1261 PHY_EDGE_ROW_18_Right_18
*1262 PHY_EDGE_ROW_19_Right_19
*1263 PHY_EDGE_ROW_20_Right_20
*1264 PHY_EDGE_ROW_21_Right_21
*1265 PHY_EDGE_ROW_22_Right_22
*1266 PHY_EDGE_ROW_23_Right_23
*1267 PHY_EDGE_ROW_0_Left_24
*1268 PHY_EDGE_ROW_1_Left_25
*1269 PHY_EDGE_ROW_2_Left_26
*1270 PHY_EDGE_ROW_3_Left_27
*1271 PHY_EDGE_ROW_4_Left_28
*1272 PHY_EDGE_ROW_5_Left_29
*1273 PHY_EDGE_ROW_6_Left_30
*1274 PHY_EDGE_ROW_7_Left_31
*1275 PHY_EDGE_ROW_8_Left_32
*1276 PHY_EDGE_ROW_9_Left_33
*1277 PHY_EDGE_ROW_10_Left_34
*1278 PHY_EDGE_ROW_11_Left_35
*1279 PHY_EDGE_ROW_12_Left_36
*1280 PHY_EDGE_ROW_13_Left_37
*1281 PHY_EDGE_ROW_14_Left_38
*1282 PHY_EDGE_ROW_15_Left_39
*1283 PHY_EDGE_ROW_16_Left_40
*1284 PHY_EDGE_ROW_17_Left_41
*1285 PHY_EDGE_ROW_18_Left_42
*1286 PHY_EDGE_ROW_19_Left_43
*1287 PHY_EDGE_ROW_20_Left_44
*1288 PHY_EDGE_ROW_21_Left_45
*1289 PHY_EDGE_ROW_22_Left_46
*1290 PHY_EDGE_ROW_23_Left_47
*1291 input18
*1292 input19
*1293 input20
*1294 input21
*1295 input22
*1296 input23
*1297 input24
*1298 input25
*1299 input26
*1300 input27
*1301 input28
*1302 input29
*1303 input30
*1304 input31
*1305 input32
*1306 input33
*1307 input34
*1308 input35
*1309 output36
*1310 output37
*1311 output38
*1312 output39
*1313 output40
*1314 output41
*1315 output42
*1316 output43
*1317 output44
*1318 output45
*1319 output46
*1320 output47
*1321 output48
*1322 output49
*1323 output50
*1324 output51
*1325 output52
*1326 output53
*1327 place148
*1328 place149
*1329 place150
*1330 place151
*1331 place154
*1332 place155
*1333 place156
*1334 place158
*1335 place159
*1336 place160
*1337 place161
*1338 place162
*1339 place163
*1340 rebuffer273
*1341 place165
*1342 place166
*1343 rebuffer315
*1344 place168
*1345 place169
*1346 place171
*1347 place172
*1348 place173
*1349 place181
*1350 place175
*1351 place176
*1352 place177
*1353 place178
*1354 place179
*1355 place180
*1356 place195
*1357 place182
*1358 place183
*1359 place184
*1360 place188
*1361 place185
*1362 place187
*1363 place186
*1364 place189
*1365 place190
*1366 place191
*1367 place193
*1368 place192
*1369 place194
*1370 place207
*1371 place196
*1372 place198
*1373 place197
*1374 place199
*1375 place200
*1376 place201
*1377 place202
*1378 place203
*1379 place204
*1380 place205
*1381 place206
*1382 clkbuf_2_2__f_clk
*1383 clkbuf_2_3__f_clk
*1384 place215
*1385 place208
*1386 place209
*1387 place210
*1388 place211
*1389 place212
*1390 place213
*1391 place214
*1392 place216
*1393 clkbuf_2_1__f_clk
*1394 place217
*1395 place218
*1396 place221
*1397 place219
*1398 place220
*1399 clkbuf_2_0__f_clk
*1400 place222
*1401 place223
*1402 place224
*1403 place225
*1404 place226
*1405 place227
*1406 place228
*1407 place229
*1408 place231
*1409 place230
*1410 place240
*1411 place232
*1412 place233
*1413 place234
*1414 place235
*1415 place236
*1416 place237
*1417 place238
*1418 place239
*1419 clkbuf_0_clk
*1420 place147
*1421 place152
*1422 place153
*1423 place157
*1424 place164
*1425 place174
*1426 clkload0
*1427 clkload1
*1428 clkload2
*1429 rebuffer241
*1430 rebuffer242
*1431 rebuffer257
*1432 rebuffer258
*1433 rebuffer268
*1434 rebuffer269
*1435 rebuffer270
*1436 clone274
*1437 clone276
*1438 clone277
*1439 clone278
*1440 clone279
*1441 rebuffer281
*1442 rebuffer287
*1443 rebuffer288
*1444 rebuffer289
*1445 rebuffer290
*1446 rebuffer298
*1447 rebuffer301
*1448 rebuffer302
*1449 rebuffer303
*1450 rebuffer304
*1451 rebuffer309
*1452 rebuffer310
*1453 rebuffer311
*1454 rebuffer312
*1455 rebuffer313
*1456 rebuffer316
*1457 rebuffer331
*1458 rebuffer332
*1459 rebuffer339
*1460 rebuffer352
*1461 FILLER_0_1
*1462 FILLER_0_40
*1463 FILLER_0_58
*1464 FILLER_0_74
*1465 FILLER_0_82
*1466 FILLER_0_107
*1467 FILLER_0_127
*1468 FILLER_0_161
*1469 FILLER_1_1
*1470 FILLER_1_9
*1471 FILLER_1_78
*1472 FILLER_1_160
*1473 FILLER_1_176
*1474 FILLER_2_1
*1475 FILLER_2_5
*1476 FILLER_2_14
*1477 FILLER_2_34
*1478 FILLER_2_64
*1479 FILLER_2_78
*1480 FILLER_2_106
*1481 FILLER_2_113
*1482 FILLER_2_164
*1483 FILLER_2_172
*1484 FILLER_2_176
*1485 FILLER_3_1
*1486 FILLER_3_5
*1487 FILLER_3_9
*1488 FILLER_3_53
*1489 FILLER_3_100
*1490 FILLER_3_121
*1491 FILLER_3_164
*1492 FILLER_3_172
*1493 FILLER_3_176
*1494 FILLER_4_7
*1495 FILLER_4_11
*1496 FILLER_4_99
*1497 FILLER_4_131
*1498 FILLER_4_159
*1499 FILLER_5_4
*1500 FILLER_5_20
*1501 FILLER_5_51
*1502 FILLER_5_164
*1503 FILLER_5_175
*1504 FILLER_6_1
*1505 FILLER_6_5
*1506 FILLER_6_12
*1507 FILLER_6_57
*1508 FILLER_6_86
*1509 FILLER_6_96
*1510 FILLER_6_119
*1511 FILLER_6_172
*1512 FILLER_6_176
*1513 FILLER_7_35
*1514 FILLER_7_75
*1515 FILLER_7_98
*1516 FILLER_7_110
*1517 FILLER_7_120
*1518 FILLER_7_162
*1519 FILLER_8_1
*1520 FILLER_8_19
*1521 FILLER_8_90
*1522 FILLER_8_142
*1523 FILLER_8_176
*1524 FILLER_9_1
*1525 FILLER_9_174
*1526 FILLER_9_176
*1527 FILLER_10_1
*1528 FILLER_10_13
*1529 FILLER_10_18
*1530 FILLER_10_66
*1531 FILLER_10_163
*1532 FILLER_10_171
*1533 FILLER_10_175
*1534 FILLER_11_1
*1535 FILLER_11_94
*1536 FILLER_11_144
*1537 FILLER_11_167
*1538 FILLER_11_175
*1539 FILLER_12_1
*1540 FILLER_12_19
*1541 FILLER_12_173
*1542 FILLER_13_37
*1543 FILLER_13_53
*1544 FILLER_13_144
*1545 FILLER_13_161
*1546 FILLER_14_27
*1547 FILLER_14_101
*1548 FILLER_14_145
*1549 FILLER_14_149
*1550 FILLER_14_166
*1551 FILLER_14_171
*1552 FILLER_14_175
*1553 FILLER_15_7
*1554 FILLER_15_15
*1555 FILLER_15_50
*1556 FILLER_15_69
*1557 FILLER_15_83
*1558 FILLER_15_92
*1559 FILLER_15_100
*1560 FILLER_15_132
*1561 FILLER_15_147
*1562 FILLER_15_157
*1563 FILLER_15_159
*1564 FILLER_16_1
*1565 FILLER_16_21
*1566 FILLER_16_25
*1567 FILLER_16_59
*1568 FILLER_16_94
*1569 FILLER_16_99
*1570 FILLER_16_105
*1571 FILLER_16_141
*1572 FILLER_16_145
*1573 FILLER_16_150
*1574 FILLER_16_162
*1575 FILLER_16_173
*1576 FILLER_17_4
*1577 FILLER_17_9
*1578 FILLER_17_13
*1579 FILLER_17_31
*1580 FILLER_17_47
*1581 FILLER_17_142
*1582 FILLER_17_169
*1583 FILLER_18_22
*1584 FILLER_18_44
*1585 FILLER_18_69
*1586 FILLER_18_93
*1587 FILLER_18_118
*1588 FILLER_18_148
*1589 FILLER_18_162
*1590 FILLER_19_20
*1591 FILLER_19_25
*1592 FILLER_19_55
*1593 FILLER_19_108
*1594 FILLER_19_130
*1595 FILLER_19_175
*1596 FILLER_20_1
*1597 FILLER_20_5
*1598 FILLER_20_9
*1599 FILLER_20_14
*1600 FILLER_20_34
*1601 FILLER_20_47
*1602 FILLER_20_109
*1603 FILLER_20_167
*1604 FILLER_20_175
*1605 FILLER_21_1
*1606 FILLER_21_17
*1607 FILLER_21_25
*1608 FILLER_21_29
*1609 FILLER_21_47
*1610 FILLER_21_90
*1611 FILLER_21_97
*1612 FILLER_21_106
*1613 FILLER_21_108
*1614 FILLER_21_135
*1615 FILLER_21_152
*1616 FILLER_21_168
*1617 FILLER_21_176
*1618 FILLER_22_1
*1619 FILLER_22_33
*1620 FILLER_22_58
*1621 FILLER_22_98
*1622 FILLER_22_102
*1623 FILLER_22_124
*1624 FILLER_22_140
*1625 FILLER_22_147
*1626 FILLER_22_163
*1627 FILLER_22_171
*1628 FILLER_22_175
*1629 FILLER_23_1
*1630 FILLER_23_33
*1631 FILLER_23_41
*1632 FILLER_23_45
*1633 FILLER_23_53
*1634 FILLER_23_93
*1635 FILLER_23_100
*1636 FILLER_23_102
*1637 FILLER_23_106
*1638 FILLER_23_114
*1639 FILLER_23_116
*1640 FILLER_23_123
*1641 FILLER_23_131
*1642 FILLER_23_134
*1643 FILLER_23_138
*1644 FILLER_23_140
*1645 FILLER_23_144
*1646 FILLER_23_176

*PORTS
clk I
req_msg[0] I
req_msg[10] I
req_msg[11] I
req_msg[12] I
req_msg[13] I
req_msg[14] I
req_msg[15] I
req_msg[16] I
req_msg[17] I
req_msg[18] I
req_msg[19] I
req_msg[1] I
req_msg[20] I
req_msg[21] I
req_msg[22] I
req_msg[23] I
req_msg[24] I
req_msg[25] I
req_msg[26] I
req_msg[27] I
req_msg[28] I
req_msg[29] I
req_msg[2] I
req_msg[30] I
req_msg[31] I
req_msg[3] I
req_msg[4] I
req_msg[5] I
req_msg[6] I
req_msg[7] I
req_msg[8] I
req_msg[9] I
req_rdy O
req_val I
reset I
resp_msg[0] O
resp_msg[10] O
resp_msg[11] O
resp_msg[12] O
resp_msg[13] O
resp_msg[14] O
resp_msg[15] O
resp_msg[1] O
resp_msg[2] O
resp_msg[3] O
resp_msg[4] O
resp_msg[5] O
resp_msg[6] O
resp_msg[7] O
resp_msg[8] O
resp_msg[9] O
resp_rdy I
resp_val O

*D_NET *1 0.000138093
*CONN
*I *1208:D I *D DFF_X2
*I *780:ZN O *D OAI21_X1
*CAP
1 *1208:D 4.12828e-05
2 *780:ZN 4.12828e-05
3 *1208:D *746:A3 3.83453e-06
4 *1208:D *780:B2 1.26036e-05
5 *1208:D *677:59 3.90891e-05
*RES
1 *780:ZN *1208:D 15.3571 
*END

*D_NET *2 0.000367133
*CONN
*I *1209:D I *D DFF_X1
*I *778:ZN O *D OAI21_X1
*CAP
1 *1209:D 0.000150573
2 *778:ZN 0.000150573
3 *1209:D *742:A 6.85774e-07
4 *1209:D *776:B1 6.85774e-07
5 *1209:D *776:B2 2.41499e-05
6 *1209:D *778:A 2.52965e-06
7 *1209:D *778:B2 1.82422e-05
8 *1209:D *1210:D 0
9 *1209:D *1307:A 1.11168e-06
10 *1209:D *1308:A 6.06253e-07
11 *1209:D *1309:A 6.72327e-06
12 *1209:D *1326:A 4.69886e-06
13 *1209:D *69:12 6.55466e-06
14 *1209:D *702:56 0
*RES
1 *778:ZN *1209:D 35.6786 
*END

*D_NET *3 0.000301792
*CONN
*I *1210:D I *D DFF_X1
*I *772:ZN O *D OAI21_X1
*CAP
1 *1210:D 0.000100428
2 *772:ZN 0.000100428
3 *1210:D *771:A1 1.29947e-05
4 *1210:D *772:A 0
5 *1210:D *778:B1 9.5934e-06
6 *1210:D *778:B2 1.34107e-07
7 *1210:D *1210:CK 6.38328e-07
8 *1210:D *37:10 7.75752e-05
9 *1209:D *1210:D 0
*RES
1 *772:ZN *1210:D 30.7857 
*END

*D_NET *4 0.00558291
*CONN
*I *1060:A3 I *D NAND3_X2
*I *1074:A3 I *D NAND3_X2
*I *1081:A3 I *D NAND3_X4
*I *1067:A3 I *D NAND3_X4
*I *1053:A3 I *D NAND3_X2
*I *1438:A2 I *D NAND2_X4
*I *1439:A2 I *D NAND2_X4
*I *1437:A2 I *D NAND2_X4
*I *1440:A3 I *D NAND4_X4
*I *1032:A3 I *D NAND4_X4
*I *775:A3 I *D AND3_X1
*I *1142:A1 I *D NAND2_X4
*I *1208:QN O *D DFF_X2
*CAP
1 *1060:A3 6.21424e-06
2 *1074:A3 2.31035e-05
3 *1081:A3 4.59847e-05
4 *1067:A3 2.19093e-05
5 *1053:A3 1.30766e-05
6 *1438:A2 0
7 *1439:A2 2.43735e-05
8 *1437:A2 0
9 *1440:A3 2.74133e-05
10 *1032:A3 2.42503e-05
11 *775:A3 0.000126889
12 *1142:A1 0
13 *1208:QN 7.60725e-05
14 *4:147 0.000142893
15 *4:132 0.000222768
16 *4:121 0.000325303
17 *4:77 0.000241608
18 *4:61 0.000335332
19 *4:55 0.000184461
20 *4:51 0.000107595
21 *4:49 0.000366456
22 *4:25 0.0002013
23 *4:23 0.000243623
24 *4:19 0.000112788
25 *4:8 0.000101822
26 *775:A3 *742:A 0
27 *775:A3 *751:A4 3.40913e-06
28 *775:A3 *775:A1 1.87369e-06
29 *775:A3 *775:A2 2.75346e-06
30 *775:A3 *778:A 9.52932e-07
31 *775:A3 *780:A 2.18474e-05
32 *775:A3 *910:A 2.67723e-05
33 *775:A3 *1035:A1 8.42664e-06
34 *775:A3 *66:8 2.48069e-05
35 *775:A3 *487:22 1.44382e-05
36 *775:A3 *487:64 2.7645e-05
37 *775:A3 *487:79 1.44464e-05
38 *775:A3 *702:56 6.50238e-07
39 *1032:A3 *1032:A1 0
40 *1032:A3 *487:79 7.19036e-06
41 *1032:A3 *702:44 0
42 *1053:A3 *1053:A1 2.52965e-06
43 *1053:A3 *1053:A2 1.74934e-05
44 *1053:A3 *1055:A2 8.43215e-07
45 *1053:A3 *1312:A 1.65202e-06
46 *1060:A3 *1060:A1 8.43215e-07
47 *1060:A3 *1150:A 0
48 *1060:A3 *231:26 0
49 *1067:A3 *970:A2 0
50 *1067:A3 *1007:B1 4.12459e-06
51 *1067:A3 *1067:A1 7.72537e-06
52 *1067:A3 *1069:A1 7.72537e-06
53 *1074:A3 *1074:A1 1.19651e-05
54 *1074:A3 *719:94 2.97612e-05
55 *1081:A3 *994:A2 6.61767e-05
56 *1081:A3 *1074:A1 4.9678e-06
57 *1081:A3 *1081:A1 8.64288e-07
58 *1081:A3 *692:12 7.10399e-07
59 *1081:A3 *719:94 2.2822e-05
60 *1439:A2 *941:A2 1.29474e-05
61 *1439:A2 *190:6 5.52692e-06
62 *1439:A2 *220:16 1.14088e-05
63 *1439:A2 *720:16 9.52997e-06
64 *1439:A2 *720:25 1.26998e-05
65 *1440:A3 *1046:B1 2.20663e-05
66 *1440:A3 *1440:A2 3.83909e-06
67 *1440:A3 *721:42 2.11815e-06
68 *4:8 *401:18 5.90834e-06
69 *4:8 *507:34 0
70 *4:8 *655:12 0
71 *4:8 *655:138 0
72 *4:8 *677:78 0
73 *4:8 *696:8 7.80967e-05
74 *4:19 *1156:A1 8.15145e-06
75 *4:19 *401:18 6.21255e-06
76 *4:19 *696:8 7.51398e-05
77 *4:23 *1051:A1 2.20815e-05
78 *4:23 *1060:A1 2.95194e-05
79 *4:23 *1150:A 0.000106383
80 *4:23 *1150:B1 7.27842e-06
81 *4:23 *296:27 8.49616e-06
82 *4:25 *910:A 5.44958e-05
83 *4:25 *1032:A1 1.25065e-05
84 *4:25 *303:45 1.20937e-06
85 *4:25 *324:26 6.61421e-05
86 *4:25 *487:79 3.49085e-06
87 *4:49 *910:A 3.94338e-05
88 *4:49 *1336:A 2.96638e-05
89 *4:49 *1353:A 9.24246e-06
90 *4:49 *324:26 0.000368722
91 *4:49 *489:10 4.87093e-05
92 *4:51 *944:A2 4.16281e-06
93 *4:51 *1437:A1 4.17373e-05
94 *4:51 *324:26 9.27922e-06
95 *4:51 *324:32 2.11821e-05
96 *4:55 *1437:A1 6.03284e-05
97 *4:55 *1439:A1 4.88546e-05
98 *4:55 *720:25 1.65202e-06
99 *4:61 *906:A 0
100 *4:61 *917:A1 2.30003e-05
101 *4:61 *917:A2 1.32524e-05
102 *4:61 *923:B2 2.55787e-06
103 *4:61 *1437:A1 0.000136378
104 *4:61 *190:6 0
105 *4:61 *720:25 2.52965e-06
106 *4:77 *876:A 2.04335e-06
107 *4:77 *906:A 1.10613e-05
108 *4:77 *906:B1 7.48003e-06
109 *4:77 *916:A2 3.40857e-05
110 *4:77 *940:A 1.39759e-05
111 *4:77 *980:A 4.50303e-05
112 *4:77 *987:A2 2.21801e-05
113 *4:77 *1437:A1 2.75346e-06
114 *4:77 *162:12 4.9348e-05
115 *4:77 *174:25 7.15748e-06
116 *4:77 *257:8 2.25694e-05
117 *4:77 *717:16 3.15192e-05
118 *4:77 *718:10 0
119 *4:77 *740:16 2.04519e-05
120 *4:121 *928:A1 2.51191e-05
121 *4:121 *944:A2 2.96032e-05
122 *4:121 *945:A 1.21946e-05
123 *4:121 *951:A2 2.04205e-05
124 *4:121 *963:A 1.91577e-06
125 *4:121 *1027:A2 2.35812e-06
126 *4:121 *223:18 1.09246e-05
127 *4:121 *324:26 1.30097e-06
128 *4:121 *325:30 9.79853e-05
129 *4:132 *928:A1 7.66675e-07
130 *4:132 *1027:A2 1.91181e-06
131 *4:132 *1069:A2 3.02351e-05
132 *4:132 *1405:A 1.43637e-05
133 *4:132 *1450:A 4.52612e-06
134 *4:132 *325:30 9.24246e-06
135 *4:132 *325:41 0.000124604
136 *4:132 *325:52 5.64879e-06
137 *4:132 *730:10 3.36152e-05
138 *4:132 *731:20 8.1183e-06
139 *4:147 *1069:A2 5.41015e-05
140 *4:147 *325:52 6.48987e-05
141 *4:147 *730:10 2.28101e-05
*RES
1 *1208:QN *4:8 19.0714 