*SPEF "ieee 1481-1999"
*DESIGN "gcd"
*DATE "22:27:15 Saturday February 14, 2026"
*VENDOR "The OpenROAD Project"
*PROGRAM "OpenROAD"
*VERSION "26Q1-951-g6975124cf2"
*DESIGN_FLOW "NAME_SCOPE LOCAL" "PIN_CAP NONE"
*DIVIDER /
*DELIMITER :
*BUS_DELIMITER []
*T_UNIT 1 NS
*C_UNIT 1 PF
*R_UNIT 1 OHM
*L_UNIT 1 HENRY

*NAME_MAP
*1 _000_
*2 _001_
*3 _002_
*4 _003_
*5 _004_
*6 _005_
*7 _006_
*8 _007_
*9 _008_
*10 _009_
*11 _010_
*12 _011_
*13 _012_
*14 _013_
*15 _014_
*16 _015_
*17 _016_
*18 _017_
*19 _018_
*20 _019_
*21 _020_
*22 _021_
*23 _022_
*24 _023_
*25 _024_
*26 _025_
*27 _026_
*28 _027_
*29 _028_
*30 _029_
*31 _030_
*32 _031_
*33 _032_
*34 _033_
*35 _034_
*36 _035_
*37 resp_msg[15]
*38 resp_msg[14]
*39 resp_msg[13]
*40 resp_msg[12]
*41 resp_msg[11]
*42 resp_msg[10]
*43 resp_msg[0]
*44 _043_
*45 req_rdy
*46 resp_rdy
*47 reset
*48 req_val
*49 _048_
*50 req_msg[9]
*51 req_msg[8]
*52 req_msg[7]
*53 req_msg[6]
*54 _053_
*55 req_msg[5]
*56 req_msg[4]
*57 req_msg[3]
*58 _057_
*59 _058_
*60 req_msg[31]
*61 req_msg[30]
*62 _061_
*63 _062_
*64 req_msg[2]
*65 req_msg[29]
*66 _065_
*67 _066_
*68 _067_
*69 _068_
*70 req_msg[28]
*71 req_msg[27]
*72 req_msg[26]
*73 _072_
*74 _073_
*75 req_msg[25]
*76 _075_
*77 _076_
*78 _077_
*79 _078_
*80 _079_
*81 req_msg[24]
*82 _081_
*83 req_msg[23]
*84 _083_
*85 _084_
*86 _085_
*87 _086_
*88 _087_
*89 _088_
*90 _089_
*91 _090_
*92 _091_
*93 _092_
*94 req_msg[22]
*95 _094_
*96 req_msg[21]
*97 _096_
*98 _097_
*99 _098_
*100 _099_
*101 _100_
*102 _101_
*103 _102_
*104 _103_
*105 _104_
*106 _105_
*107 _106_
*108 _107_
*109 _108_
*110 _109_
*111 _110_
*112 _111_
*113 _112_
*114 _113_
*115 _114_
*116 _115_
*117 _116_
*118 _117_
*119 _118_
*120 _119_
*121 _120_
*122 req_msg[20]
*123 _122_
*124 _123_
*125 _124_
*126 _125_
*127 _126_
*128 _127_
*129 _128_
*130 _129_
*131 _130_
*132 req_msg[1]
*133 _132_
*134 _133_
*135 _134_
*136 _135_
*137 _136_
*138 _137_
*139 _138_
*140 _139_
*141 req_msg[19]
*142 _141_
*143 _142_
*144 _143_
*145 _144_
*146 _145_
*147 _146_
*148 _147_
*149 _148_
*150 _149_
*151 _150_
*152 _151_
*153 _152_
*154 _153_
*155 _154_
*156 _155_
*157 _156_
*158 _157_
*159 req_msg[18]
*160 _159_
*161 req_msg[17]
*162 _161_
*163 _162_
*164 _163_
*165 _164_
*166 _165_
*167 _166_
*168 _167_
*169 _168_
*170 _169_
*171 _170_
*172 _171_
*173 _172_
*174 _173_
*175 _174_
*176 _175_
*177 _176_
*178 _177_
*179 _178_
*180 _179_
*181 _180_
*182 req_msg[16]
*183 _182_
*184 _183_
*185 _184_
*186 _185_
*187 _186_
*188 _187_
*189 _188_
*190 _189_
*191 _190_
*192 _191_
*193 _192_
*194 _193_
*195 _194_
*196 _195_
*197 _196_
*198 _197_
*199 _198_
*200 req_msg[15]
*201 _200_
*202 _201_
*203 _202_
*204 _203_
*205 _204_
*206 _205_
*207 _206_
*208 _207_
*209 _208_
*210 _209_
*211 _210_
*212 _211_
*213 _212_
*214 _213_
*215 _214_
*216 _215_
*217 _216_
*218 _217_
*219 _218_
*220 req_msg[14]
*221 _220_
*222 _221_
*223 _222_
*224 _223_
*225 _224_
*226 _225_
*227 _226_
*228 _227_
*229 _228_
*230 _229_
*231 _230_
*232 _231_
*233 _232_
*234 _233_
*235 _234_
*236 _235_
*237 _236_
*238 _237_
*239 _238_
*240 req_msg[13]
*241 req_msg[12]
*242 req_msg[11]
*243 _242_
*244 _243_
*245 _244_
*246 _245_
*247 _246_
*248 _247_
*249 _248_
*250 _249_
*251 _250_
*252 req_msg[10]
*253 _252_
*254 _253_
*255 _254_
*256 _255_
*257 _256_
*258 _257_
*259 _258_
*260 _259_
*261 _260_
*262 _261_
*263 _262_
*264 _263_
*265 _264_
*266 _265_
*267 _266_
*268 _267_
*269 _268_
*270 _269_
*271 _270_
*272 _271_
*273 _272_
*274 _273_
*275 _274_
*276 _275_
*277 _276_
*278 _277_
*279 _278_
*280 _279_
*281 _280_
*282 _281_
*283 _282_
*284 _283_
*285 _284_
*286 _285_
*287 _286_
*288 _287_
*289 _288_
*290 _289_
*291 _290_
*292 _291_
*293 _292_
*294 _293_
*295 _294_
*296 _295_
*297 _296_
*298 _297_
*299 _298_
*300 req_msg[0]
*301 _300_
*302 _301_
*303 _302_
*304 _303_
*305 _304_
*306 _305_
*307 _306_
*308 _307_
*309 _308_
*310 _309_
*311 _310_
*312 _311_
*313 _312_
*314 _313_
*315 _314_
*316 _315_
*317 _316_
*318 _317_
*319 _318_
*320 _319_
*321 _320_
*322 _321_
*323 _322_
*324 _323_
*325 _324_
*326 _325_
*327 _326_
*328 _327_
*329 _328_
*330 _329_
*331 _330_
*332 _331_
*333 _332_
*334 _333_
*335 _334_
*336 _335_
*337 _336_
*338 _337_
*339 _338_
*340 _339_
*341 _340_
*342 _341_
*343 _342_
*344 _343_
*345 _344_
*346 _345_
*347 _346_
*348 _347_
*349 _348_
*350 clk
*351 ctrl\.state\.out\[1\]
*352 ctrl\.state\.out\[2\]
*353 dpath\.a_lt_b\$in0\[0\]
*354 dpath\.a_lt_b\$in0\[10\]
*355 dpath\.a_lt_b\$in0\[11\]
*356 dpath\.a_lt_b\$in0\[12\]
*357 dpath\.a_lt_b\$in0\[13\]
*358 dpath\.a_lt_b\$in0\[14\]
*359 dpath\.a_lt_b\$in0\[15\]
*360 dpath\.a_lt_b\$in0\[1\]
*361 dpath\.a_lt_b\$in0\[2\]
*362 dpath\.a_lt_b\$in0\[3\]
*363 dpath\.a_lt_b\$in0\[4\]
*364 dpath\.a_lt_b\$in0\[5\]
*365 dpath\.a_lt_b\$in0\[6\]
*366 dpath\.a_lt_b\$in0\[7\]
*367 dpath\.a_lt_b\$in0\[8\]
*368 dpath\.a_lt_b\$in0\[9\]
*369 dpath\.a_lt_b\$in1\[0\]
*370 dpath\.a_lt_b\$in1\[10\]
*371 dpath\.a_lt_b\$in1\[11\]
*372 dpath\.a_lt_b\$in1\[12\]
*373 dpath\.a_lt_b\$in1\[13\]
*374 dpath\.a_lt_b\$in1\[14\]
*375 dpath\.a_lt_b\$in1\[15\]
*376 dpath\.a_lt_b\$in1\[1\]
*377 dpath\.a_lt_b\$in1\[2\]
*378 dpath\.a_lt_b\$in1\[3\]
*379 dpath\.a_lt_b\$in1\[4\]
*380 dpath\.a_lt_b\$in1\[5\]
*381 dpath\.a_lt_b\$in1\[6\]
*382 dpath\.a_lt_b\$in1\[7\]
*383 dpath\.a_lt_b\$in1\[8\]
*384 dpath\.a_lt_b\$in1\[9\]
*385 net1
*386 net2
*387 net3
*388 net4
*389 net5
*390 net6
*391 net7
*392 net8
*393 net9
*394 net10
*395 net11
*396 net12
*397 net13
*398 net14
*399 net15
*400 net16
*401 net17
*402 net18
*403 net19
*404 net20
*405 net21
*406 net22
*407 net23
*408 net24
*409 net25
*410 net26
*411 net27
*412 net28
*413 net29
*414 net30
*415 net31
*416 net32
*417 net36
*418 net33
*419 net34
*420 net37
*421 net38
*422 net39
*423 net40
*424 net41
*425 net42
*426 net43
*427 net44
*428 net45
*429 net46
*430 net47
*431 net48
*432 net49
*433 net50
*434 net51
*435 net52
*436 net35
*437 net53
*440 resp_msg[1]
*441 resp_msg[2]
*442 resp_msg[3]
*443 resp_msg[4]
*444 resp_msg[5]
*445 resp_msg[6]
*446 resp_msg[7]
*447 resp_msg[8]
*448 resp_msg[9]
*449 resp_val
*450 net170
*451 net169
*452 net168
*453 net165
*454 net166
*455 net167
*456 net171
*457 net288
*458 net174
*459 net173
*460 net172
*461 net287
*462 net176
*463 net175
*464 net204
*465 net177
*466 net178
*467 net179
*468 net201
*469 net180
*470 net181
*471 net182
*472 net200
*473 net183
*474 net199
*475 net184
*476 net317
*477 net186
*478 net370
*479 net188
*480 net191
*481 net189
*482 net190
*483 net195
*484 net192
*485 net193
*486 net194
*487 net196
*488 net197
*489 net198
*490 net202
*491 net203
*492 net206
*493 net205
*494 net214
*495 net207
*496 net208
*497 net209
*498 net210
*499 net211
*500 net212
*501 net213
*502 net215
*503 net270
*504 net216
*505 net217
*506 net218
*507 net269
*508 net219
*509 net220
*510 net221
*511 net222
*512 net231
*513 net223
*514 net224
*515 net225
*516 net226
*517 net227
*518 net228
*519 net229
*520 net230
*521 net268
*522 net232
*523 net233
*524 net234
*525 net235
*526 net236
*527 net237
*528 net238
*529 net240
*530 net239
*531 net241
*532 net242
*533 net243
*534 net247
*535 net244
*536 net245
*537 net246
*538 net267
*540 net263
*541 net248
*542 net249
*543 net250
*544 net251
*545 net252
*546 net415
*547 clknet_2_3__leaf_clk
*548 net254
*549 net255
*550 clknet_2_2__leaf_clk
*551 net256
*552 net257
*553 net258
*554 net259
*555 net260
*556 clknet_2_1__leaf_clk
*557 clknet_2_0__leaf_clk
*558 net261
*559 net262
*560 clknet_0_clk
*561 net289
*562 net290
*563 net293
*564 net295
*565 net297
*566 net318
*567 net319
*568 net324
*569 net325
*570 net344
*571 net345
*572 net346
*573 net351
*574 net352
*575 net353
*576 net354
*577 net355
*578 net356
*579 net359
*580 net362
*581 net366
*582 net367
*583 output43
*584 output42
*585 output41
*586 output40
*587 output39
*588 output38
*589 output37
*590 _356_
*591 output36
*592 input35
*593 input34
*594 input33
*595 _361_
*596 input32
*597 input31
*598 input30
*599 input29
*600 _366_
*601 input28
*602 input27
*603 input26
*604 _370_
*605 _371_
*606 input25
*607 input24
*608 _374_
*609 _375_
*610 _376_
*611 input23
*612 _378_
*613 input22
*614 _380_
*615 _381_
*616 _382_
*617 _383_
*618 _384_
*619 input21
*620 input20
*621 _387_
*622 input19
*623 _389_
*624 _390_
*625 _391_
*626 input18
*627 _393_
*628 _394_
*629 _395_
*630 _396_
*631 _397_
*632 _398_
*633 input17
*634 _400_
*635 _401_
*636 input16
*637 _403_
*638 _404_
*639 _405_
*640 _406_
*641 _407_
*642 _408_
*643 _409_
*644 _410_
*645 _411_
*646 _412_
*647 _413_
*648 input15
*649 _415_
*650 _416_
*651 input14
*652 _418_
*653 _419_
*654 _420_
*655 _421_
*656 _422_
*657 _423_
*658 _424_
*659 _425_
*660 _426_
*661 _427_
*662 _428_
*663 _429_
*664 _430_
*665 _431_
*666 _432_
*667 _433_
*668 _434_
*669 _435_
*670 _436_
*671 _437_
*672 _438_
*673 _439_
*674 _440_
*675 _441_
*676 _442_
*677 _443_
*678 _444_
*679 _445_
*680 input13
*681 _447_
*682 _448_
*683 _449_
*684 _450_
*685 _451_
*686 _452_
*687 _453_
*688 _454_
*689 _455_
*690 _456_
*691 _457_
*692 input12
*693 _459_
*694 _460_
*695 _461_
*696 _462_
*697 _463_
*698 _464_
*699 _465_
*700 _466_
*701 _467_
*702 input11
*703 _469_
*704 _470_
*705 _471_
*706 _472_
*707 _473_
*708 _474_
*709 _475_
*710 _476_
*711 _477_
*712 _478_
*713 _479_
*714 _480_
*715 _481_
*716 _482_
*717 _483_
*718 _484_
*719 _485_
*720 _486_
*721 input10
*722 _488_
*723 _489_
*724 input9
*725 _491_
*726 _492_
*727 _493_
*728 _494_
*729 _495_
*730 _496_
*731 _497_
*732 _498_
*733 _499_
*734 _500_
*735 _501_
*736 _502_
*737 _503_
*738 _504_
*739 _505_
*740 _506_
*741 _507_
*742 _508_
*743 _509_
*744 _510_
*745 _511_
*746 input8
*747 _513_
*748 _514_
*749 _515_
*750 _516_
*751 _517_
*752 _518_
*753 _519_
*754 _520_
*755 _521_
*756 _522_
*757 _523_
*758 _524_
*759 _525_
*760 _526_
*761 _527_
*762 _528_
*763 _529_
*764 _530_
*765 _531_
*766 input7
*767 _533_
*768 _534_
*769 _535_
*770 _536_
*771 _537_
*772 _538_
*773 _539_
*774 _540_
*775 _541_
*776 _542_
*777 _543_
*778 _544_
*779 _545_
*780 _546_
*781 _547_
*782 _548_
*783 _549_
*784 _550_
*785 _551_
*786 input6
*787 _553_
*788 _554_
*789 _555_
*790 _556_
*791 _557_
*792 _558_
*793 _559_
*794 _560_
*795 _561_
*796 _562_
*797 _563_
*798 _564_
*799 _565_
*800 _566_
*801 _567_
*802 _568_
*803 _569_
*804 _570_
*805 _571_
*806 _572_
*807 _573_
*808 input5
*809 input4
*810 input3
*811 _577_
*812 _578_
*813 _579_
*814 _580_
*815 _581_
*816 _582_
*817 _583_
*818 _584_
*819 _585_
*820 _586_
*821 _587_
*822 input2
*823 _589_
*824 _590_
*825 _591_
*826 _592_
*827 _593_
*828 _594_
*829 _595_
*830 _596_
*831 _597_
*832 _598_
*833 _599_
*834 _600_
*835 _601_
*836 _602_
*837 _603_
*838 _604_
*839 _605_
*840 _606_
*841 _607_
*842 _608_
*843 _609_
*844 _610_
*845 _611_
*846 _612_
*847 _613_
*848 _614_
*849 _615_
*850 _616_
*851 _617_
*852 _618_
*853 _619_
*854 _620_
*855 _621_
*856 _622_
*857 _623_
*858 _624_
*859 _625_
*860 _626_
*861 _627_
*862 _628_
*863 _629_
*864 _630_
*865 _631_
*866 _632_
*867 _633_
*868 _634_
*869 _635_
*870 _636_
*871 _637_
*872 _638_
*873 _639_
*874 _640_
*875 _641_
*876 _642_
*877 _643_
*878 _644_
*879 _645_
*880 _646_
*881 _647_
*882 input1
*883 _649_
*884 _650_
*885 _651_
*886 _652_
*887 _653_
*888 _654_
*889 _655_
*890 _656_
*891 _657_
*892 _658_
*893 _659_
*894 _660_
*895 _661_
*896 _662_
*897 _663_
*898 _664_
*899 _665_
*900 _666_
*901 _667_
*902 _668_
*903 _669_
*904 _670_
*905 _671_
*906 _672_
*907 _673_
*908 _674_
*909 _675_
*910 _676_
*911 _677_
*912 _678_
*913 _679_
*914 ctrl\.state\.out\[0\]\$_DFF_P_
*915 ctrl\.state\.out\[1\]\$_DFF_P_
*916 ctrl\.state\.out\[2\]\$_DFF_P_
*917 dpath\.a_reg\.out\[0\]\$_DFFE_PP_
*918 dpath\.a_reg\.out\[10\]\$_DFFE_PP_
*919 dpath\.a_reg\.out\[11\]\$_DFFE_PP_
*920 dpath\.a_reg\.out\[12\]\$_DFFE_PP_
*921 dpath\.a_reg\.out\[13\]\$_DFFE_PP_
*922 dpath\.a_reg\.out\[14\]\$_DFFE_PP_
*923 dpath\.a_reg\.out\[15\]\$_DFFE_PP_
*924 dpath\.a_reg\.out\[1\]\$_DFFE_PP_
*925 dpath\.a_reg\.out\[2\]\$_DFFE_PP_
*926 dpath\.a_reg\.out\[3\]\$_DFFE_PP_
*927 dpath\.a_reg\.out\[4\]\$_DFFE_PP_
*928 dpath\.a_reg\.out\[5\]\$_DFFE_PP_
*929 dpath\.a_reg\.out\[6\]\$_DFFE_PP_
*930 dpath\.a_reg\.out\[7\]\$_DFFE_PP_
*931 dpath\.a_reg\.out\[8\]\$_DFFE_PP_
*932 dpath\.a_reg\.out\[9\]\$_DFFE_PP_
*933 dpath\.b_reg\.out\[0\]\$_DFFE_PP_
*934 dpath\.b_reg\.out\[10\]\$_DFFE_PP_
*935 dpath\.b_reg\.out\[11\]\$_DFFE_PP_
*936 dpath\.b_reg\.out\[12\]\$_DFFE_PP_
*937 dpath\.b_reg\.out\[13\]\$_DFFE_PP_
*938 dpath\.b_reg\.out\[14\]\$_DFFE_PP_
*939 dpath\.b_reg\.out\[15\]\$_DFFE_PP_
*940 dpath\.b_reg\.out\[1\]\$_DFFE_PP_
*941 dpath\.b_reg\.out\[2\]\$_DFFE_PP_
*942 dpath\.b_reg\.out\[3\]\$_DFFE_PP_
*943 dpath\.b_reg\.out\[4\]\$_DFFE_PP_
*944 dpath\.b_reg\.out\[5\]\$_DFFE_PP_
*945 dpath\.b_reg\.out\[6\]\$_DFFE_PP_
*946 dpath\.b_reg\.out\[7\]\$_DFFE_PP_
*947 dpath\.b_reg\.out\[8\]\$_DFFE_PP_
*948 dpath\.b_reg\.out\[9\]\$_DFFE_PP_
*949 PHY_EDGE_ROW_0_Right_0
*950 PHY_EDGE_ROW_1_Right_1
*951 PHY_EDGE_ROW_2_Right_2
*952 PHY_EDGE_ROW_3_Right_3
*953 PHY_EDGE_ROW_4_Right_4
*954 PHY_EDGE_ROW_5_Right_5
*955 PHY_EDGE_ROW_6_Right_6
*956 PHY_EDGE_ROW_7_Right_7
*957 PHY_EDGE_ROW_8_Right_8
*958 PHY_EDGE_ROW_9_Right_9
*959 PHY_EDGE_ROW_10_Right_10
*960 PHY_EDGE_ROW_11_Right_11
*961 PHY_EDGE_ROW_12_Right_12
*962 PHY_EDGE_ROW_13_Right_13
*963 PHY_EDGE_ROW_14_Right_14
*964 PHY_EDGE_ROW_15_Right_15
*965 PHY_EDGE_ROW_16_Right_16
*966 PHY_EDGE_ROW_17_Right_17
*967 PHY_EDGE_ROW_18_Right_18
*968 PHY_EDGE_ROW_19_Right_19
*969 PHY_EDGE_ROW_20_Right_20
*970 PHY_EDGE_ROW_21_Right_21
*971 PHY_EDGE_ROW_0_Left_22
*972 PHY_EDGE_ROW_1_Left_23
*973 PHY_EDGE_ROW_2_Left_24
*974 PHY_EDGE_ROW_3_Left_25
*975 PHY_EDGE_ROW_4_Left_26
*976 PHY_EDGE_ROW_5_Left_27
*977 PHY_EDGE_ROW_6_Left_28
*978 PHY_EDGE_ROW_7_Left_29
*979 PHY_EDGE_ROW_8_Left_30
*980 PHY_EDGE_ROW_9_Left_31
*981 PHY_EDGE_ROW_10_Left_32
*982 PHY_EDGE_ROW_11_Left_33
*983 PHY_EDGE_ROW_12_Left_34
*984 PHY_EDGE_ROW_13_Left_35
*985 PHY_EDGE_ROW_14_Left_36
*986 PHY_EDGE_ROW_15_Left_37
*987 PHY_EDGE_ROW_16_Left_38
*988 PHY_EDGE_ROW_17_Left_39
*989 PHY_EDGE_ROW_18_Left_40
*990 PHY_EDGE_ROW_19_Left_41
*991 PHY_EDGE_ROW_20_Left_42
*992 PHY_EDGE_ROW_21_Left_43
*993 output44
*994 output45
*995 output46
*996 output47
*997 output48
*998 output49
*999 output50
*1000 output51
*1001 output52
*1002 output53
*1003 place170
*1004 place169
*1005 place168
*1006 place165
*1007 place166
*1008 place167
*1009 place171
*1010 rebuffer269
*1011 place174
*1012 place173
*1013 place172
*1014 rebuffer268
*1015 place176
*1016 place175
*1017 place204
*1018 place177
*1019 place178
*1020 place179
*1021 place201
*1022 place180
*1023 place181
*1024 place182
*1025 place200
*1026 place183
*1027 place199
*1028 place184
*1029 rebuffer317
*1030 place186
*1031 rebuffer370
*1032 place188
*1033 place191
*1034 place189
*1035 place190
*1036 place195
*1037 place192
*1038 place193
*1039 place194
*1040 place196
*1041 place197
*1042 place198
*1043 place202
*1044 place203
*1045 place206
*1046 place205
*1047 place214
*1048 place207
*1049 place208
*1050 place209
*1051 place210
*1052 place211
*1053 place212
*1054 place213
*1055 place215
*1056 rebuffer267
*1057 place216
*1058 place217
*1059 place218
*1060 FILLER_0_1
*1061 place219
*1062 place220
*1063 place221
*1064 place222
*1065 place231
*1066 place223
*1067 place224
*1068 place225
*1069 place226
*1070 place227
*1071 place228
*1072 place229
*1073 place230
*1074 rebuffer263
*1075 place232
*1076 place233
*1077 place234
*1078 place235
*1079 place236
*1080 place237
*1081 place238
*1082 place240
*1083 place239
*1084 place241
*1085 place242
*1086 place243
*1087 place247
*1088 place244
*1089 place245
*1090 place246
*1091 clkload2
*1092 clkload1
*1093 clkload0
*1094 place248
*1095 place249
*1096 place250
*1097 place251
*1098 place252
*1099 rebuffer415
*1100 clkbuf_2_3__f_clk
*1101 place254
*1102 place255
*1103 clkbuf_2_2__f_clk
*1104 place256
*1105 place257
*1106 place258
*1107 place259
*1108 place260
*1109 clkbuf_2_1__f_clk
*1110 clkbuf_2_0__f_clk
*1111 place261
*1112 place262
*1113 clkbuf_0_clk
*1114 rebuffer270
*1115 rebuffer287
*1116 rebuffer288
*1117 rebuffer289
*1118 rebuffer290
*1119 rebuffer293
*1120 rebuffer295
*1121 rebuffer297
*1122 rebuffer318
*1123 rebuffer319
*1124 rebuffer324
*1125 rebuffer325
*1126 rebuffer344
*1127 rebuffer345
*1128 rebuffer346
*1129 rebuffer351
*1130 rebuffer352
*1131 rebuffer353
*1132 rebuffer354
*1133 rebuffer355
*1134 rebuffer356
*1135 rebuffer359
*1136 rebuffer362
*1137 rebuffer366
*1138 rebuffer367
*1139 FILLER_0_17
*1140 FILLER_0_83
*1141 FILLER_0_96
*1142 FILLER_0_120
*1143 FILLER_0_152
*1144 FILLER_0_160
*1145 FILLER_0_164
*1146 FILLER_1_1
*1147 FILLER_1_17
*1148 FILLER_1_25
*1149 FILLER_1_27
*1150 FILLER_1_38
*1151 FILLER_1_50
*1152 FILLER_1_55
*1153 FILLER_1_69
*1154 FILLER_1_101
*1155 FILLER_1_106
*1156 FILLER_1_121
*1157 FILLER_1_153
*1158 FILLER_1_161
*1159 FILLER_2_1
*1160 FILLER_2_17
*1161 FILLER_2_21
*1162 FILLER_2_23
*1163 FILLER_2_84
*1164 FILLER_2_106
*1165 FILLER_2_114
*1166 FILLER_2_116
*1167 FILLER_2_119
*1168 FILLER_2_127
*1169 FILLER_2_152
*1170 FILLER_2_160
*1171 FILLER_2_164
*1172 FILLER_3_1
*1173 FILLER_3_9
*1174 FILLER_3_46
*1175 FILLER_3_92
*1176 FILLER_3_102
*1177 FILLER_3_105
*1178 FILLER_3_125
*1179 FILLER_3_133
*1180 FILLER_3_138
*1181 FILLER_3_147
*1182 FILLER_3_155
*1183 FILLER_3_159
*1184 FILLER_3_163
*1185 FILLER_4_4
*1186 FILLER_4_42
*1187 FILLER_4_72
*1188 FILLER_4_76
*1189 FILLER_4_87
*1190 FILLER_4_105
*1191 FILLER_4_116
*1192 FILLER_4_130
*1193 FILLER_4_143
*1194 FILLER_4_159
*1195 FILLER_4_163
*1196 FILLER_5_1
*1197 FILLER_5_27
*1198 FILLER_5_63
*1199 FILLER_5_90
*1200 FILLER_5_100
*1201 FILLER_5_107
*1202 FILLER_5_143
*1203 FILLER_7_18
*1204 FILLER_7_104
*1205 FILLER_7_109
*1206 FILLER_7_132
*1207 FILLER_7_136
*1208 FILLER_7_140
*1209 FILLER_7_147
*1210 FILLER_7_156
*1211 FILLER_7_163
*1212 FILLER_8_67
*1213 FILLER_8_112
*1214 FILLER_8_114
*1215 FILLER_8_157
*1216 FILLER_8_161
*1217 FILLER_9_32
*1218 FILLER_9_99
*1219 FILLER_9_124
*1220 FILLER_9_145
*1221 FILLER_9_164
*1222 FILLER_10_1
*1223 FILLER_10_19
*1224 FILLER_10_37
*1225 FILLER_10_54
*1226 FILLER_10_89
*1227 FILLER_10_99
*1228 FILLER_10_114
*1229 FILLER_10_118
*1230 FILLER_10_120
*1231 FILLER_10_156
*1232 FILLER_10_160
*1233 FILLER_11_77
*1234 FILLER_11_105
*1235 FILLER_11_113
*1236 FILLER_11_127
*1237 FILLER_11_150
*1238 FILLER_11_159
*1239 FILLER_11_161
*1240 FILLER_12_1
*1241 FILLER_12_32
*1242 FILLER_12_52
*1243 FILLER_12_96
*1244 FILLER_12_163
*1245 FILLER_13_1
*1246 FILLER_13_13
*1247 FILLER_13_37
*1248 FILLER_13_70
*1249 FILLER_13_97
*1250 FILLER_13_122
*1251 FILLER_13_136
*1252 FILLER_13_164
*1253 FILLER_14_103
*1254 FILLER_14_139
*1255 FILLER_14_161
*1256 FILLER_15_1
*1257 FILLER_15_47
*1258 FILLER_15_88
*1259 FILLER_15_102
*1260 FILLER_15_125
*1261 FILLER_15_156
*1262 FILLER_15_160
*1263 FILLER_15_164
*1264 FILLER_16_1
*1265 FILLER_16_48
*1266 FILLER_16_78
*1267 FILLER_16_118
*1268 FILLER_16_159
*1269 FILLER_17_1
*1270 FILLER_17_20
*1271 FILLER_17_52
*1272 FILLER_17_80
*1273 FILLER_17_93
*1274 FILLER_18_17
*1275 FILLER_18_25
*1276 FILLER_18_43
*1277 FILLER_18_64
*1278 FILLER_18_85
*1279 FILLER_19_1
*1280 FILLER_19_9
*1281 FILLER_19_17
*1282 FILLER_19_53
*1283 FILLER_19_141
*1284 FILLER_19_163
*1285 FILLER_20_1
*1286 FILLER_20_17
*1287 FILLER_20_21
*1288 FILLER_20_23
*1289 FILLER_20_55
*1290 FILLER_20_64
*1291 FILLER_20_163
*1292 FILLER_21_1
*1293 FILLER_21_33
*1294 FILLER_21_49
*1295 FILLER_21_59
*1296 FILLER_21_67
*1297 FILLER_21_71
*1298 FILLER_21_73
*1299 FILLER_21_123
*1300 FILLER_21_132
*1301 FILLER_21_150
*1302 FILLER_21_158
*1303 FILLER_21_162
*1304 FILLER_21_164

*PORTS
clk I
req_msg[0] I
req_msg[10] I
req_msg[11] I
req_msg[12] I
req_msg[13] I
req_msg[14] I
req_msg[15] I
req_msg[16] I
req_msg[17] I
req_msg[18] I
req_msg[19] I
req_msg[1] I
req_msg[20] I
req_msg[21] I
req_msg[22] I
req_msg[23] I
req_msg[24] I
req_msg[25] I
req_msg[26] I
req_msg[27] I
req_msg[28] I
req_msg[29] I
req_msg[2] I
req_msg[30] I
req_msg[31] I
req_msg[3] I
req_msg[4] I
req_msg[5] I
req_msg[6] I
req_msg[7] I
req_msg[8] I
req_msg[9] I
req_rdy O
req_val I
reset I
resp_msg[0] O
resp_msg[10] O
resp_msg[11] O
resp_msg[12] O
resp_msg[13] O
resp_msg[14] O
resp_msg[15] O
resp_msg[1] O
resp_msg[2] O
resp_msg[3] O
resp_msg[4] O
resp_msg[5] O
resp_msg[6] O
resp_msg[7] O
resp_msg[8] O
resp_msg[9] O
resp_rdy I
resp_val O

*D_NET *1 0.000266711
*CONN
*I *914:D I *D DFF_X1
*I *621:ZN O *D OAI21_X1
*CAP
1 *914:D 9.23256e-05
2 *621:ZN 9.23256e-05
3 *914:D *608:A1 8.2378e-06
4 *914:D *608:A2 7.19036e-06
5 *914:D *614:A3 9.57492e-07
6 *914:D *858:A 7.48875e-06
7 *914:D *59:18 2.38794e-05
8 *914:D *559:25 3.43061e-05
*RES
1 *621:ZN *914:D 22.0357 
*END

*D_NET *2 0.000218524
*CONN
*I *915:D I *D DFF_X1
*I *617:ZN O *D INV_X1
*CAP
1 *915:D 8.76463e-05
2 *617:ZN 8.76463e-05
3 *915:D *610:A 0
4 *915:D *63:123 4.32319e-05
5 *915:D *352:12 0
*RES
1 *617:ZN *915:D 29.75 
*END

*D_NET *3 0.000336666
*CONN
*I *916:D I *D DFF_X1
*I *609:ZN O *D NOR2_X1
*CAP
1 *916:D 5.15049e-05
2 *609:ZN 5.15049e-05
3 *916:D *609:A1 3.02372e-05
4 *916:D *63:123 2.0659e-05
5 *916:D *352:12 0.000145608
6 *916:D *352:156 3.71527e-05
*RES
1 *609:ZN *916:D 29.75 
*END

*D_NET *4 0.00854216
*CONN
*I *851:A2 I *D AND4_X2
*I *856:A2 I *D AND4_X4
*I *881:A I *D OAI21_X4
*I *828:B1 I *D AOI21_X1
*I *821:A2 I *D AND3_X1
*I *769:A3 I *D AND3_X1
*I *841:A2 I *D AND4_X4
*I *846:A2 I *D AND4_X4
*I *836:A2 I *D AND4_X4
*I *767:A2 I *D NAND2_X1
*I *832:A3 I *D NAND3_X1
*I *867:A2 I *D AND4_X4
*I *876:A2 I *D AND4_X4
*I *800:A2 I *D NAND2_X1
*I *811:A2 I *D AND4_X4
*I *816:A2 I *D AND4_X4
*I *862:A2 I *D AND4_X4
*I *871:A2 I *D AND4_X4
*I *612:A3 I *D AND3_X1
*I *914:QN O *D DFF_X1
*CAP
1 *851:A2 7.88807e-05
2 *856:A2 1.63151e-05
3 *881:A 0
4 *828:B1 7.02163e-05
5 *821:A2 1.66193e-05
6 *769:A3 3.37262e-05
7 *841:A2 2.2352e-05
8 *846:A2 4.69449e-05
9 *836:A2 0
10 *767:A2 0
11 *832:A3 4.39124e-05
12 *867:A2 0
13 *876:A2 6.62561e-06
14 *800:A2 9.46853e-05
15 *811:A2 0
16 *816:A2 6.15398e-05
17 *862:A2 1.32528e-05
18 *871:A2 3.10453e-05
19 *612:A3 8.35311e-05
20 *914:QN 8.59768e-06
21 *4:250 0.000150548
22 *4:213 0.000256767
23 *4:192 0.000277472
24 *4:184 0.000198574
25 *4:173 8.31626e-05
26 *4:169 0.000185231
27 *4:158 0.000247808
28 *4:152 0.000246531
29 *4:107 0.000129762
30 *4:83 0.000198231
31 *4:77 0.000444947
32 *4:59 7.41839e-05
33 *4:55 0.00037239
34 *4:49 0.000151752
35 *4:43 0.000260293
36 *4:39 0.000259742
37 *4:23 0.000334958
38 *4:6 0.000120182
39 *612:A3 *612:A1 5.31084e-07
40 *612:A3 *612:A2 1.80284e-05
41 *612:A3 *904:B 4.30875e-05
42 *612:A3 *997:A 8.168e-06
43 *612:A3 *1069:A 1.0271e-05
44 *612:A3 *417:8 1.98824e-05
45 *769:A3 *628:A 3.03761e-05
46 *769:A3 *769:A2 4.6837e-06
47 *769:A3 *917:D 0
48 *769:A3 *535:20 2.4406e-05
49 *769:A3 *535:24 1.66988e-05
50 *769:A3 *555:8 0
51 *769:A3 *555:10 2.26306e-06
52 *800:A2 *709:A 3.09143e-06
53 *800:A2 *793:A 5.65096e-06
54 *800:A2 *793:C1 8.83966e-05
55 *800:A2 *800:A1 2.52965e-06
56 *800:A2 *876:A3 1.5391e-05
57 *800:A2 *912:S 1.62297e-06
58 *800:A2 *913:B 1.52083e-06
59 *800:A2 *1026:A 6.69075e-05
60 *800:A2 *149:14 5.91435e-06
61 *800:A2 *228:18 1.62258e-05
62 *800:A2 *494:14 6.37488e-06
63 *800:A2 *494:33 2.04812e-06
64 *800:A2 *559:139 1.21718e-05
65 *800:A2 *571:24 6.71272e-05
66 *816:A2 *805:A2 2.76355e-05
67 *816:A2 *812:A 1.48912e-05
68 *816:A2 *816:A1 1.32323e-05
69 *816:A2 *816:A4 1.88334e-06
70 *816:A2 *817:B1 8.10241e-06
71 *816:A2 *919:CK 1.02792e-05
72 *816:A2 *557:8 8.26038e-06
73 *816:A2 *557:10 8.2465e-06
74 *816:A2 *558:20 6.56007e-06
75 *821:A2 *821:A1 2.20124e-05
76 *821:A2 *821:A3 1.73125e-05
77 *828:B1 *600:A2 4.9678e-06
78 *828:B1 *625:A1 0
79 *828:B1 *824:A1 0
80 *828:B1 *825:B1 5.38637e-07
81 *828:B1 *217:10 0.00011679
82 *828:B1 *217:14 7.40328e-06
83 *828:B1 *527:38 8.43215e-07
84 *832:A3 *600:A2 7.16188e-07
85 *832:A3 *763:B 1.59582e-06
86 *832:A3 *783:A2 5.44908e-06
87 *832:A3 *832:A2 2.39679e-06
88 *832:A3 *54:24 1.65264e-05
89 *832:A3 *518:59 0
90 *841:A2 *841:A4 6.32461e-06
91 *841:A2 *239:85 1.08425e-05
92 *841:A2 *428:10 0
93 *846:A2 *841:A4 1.0017e-05
94 *846:A2 *239:85 1.34248e-05
95 *846:A2 *458:59 6.53865e-06
96 *846:A2 *463:43 1.55645e-05
97 *846:A2 *484:33 2.99872e-05
98 *851:A2 *851:A1 1.45088e-05
99 *851:A2 *851:A3 2.39679e-06
100 *851:A2 *854:B2 0
101 *851:A2 *854:C1 0
102 *851:A2 *997:A 0.00011244
103 *851:A2 *431:24 7.23091e-06
104 *851:A2 *452:43 4.04881e-06
105 *851:A2 *458:37 3.83812e-06
106 *851:A2 *516:8 0
107 *856:A2 *463:14 1.99626e-05
108 *862:A2 *381:69 8.43215e-07
109 *862:A2 *383:14 1.52724e-05
110 *862:A2 *518:14 1.28122e-06
111 *871:A2 *871:A1 2.39679e-06
112 *871:A2 *383:14 4.38894e-05
113 *871:A2 *518:14 6.39696e-06
114 *876:A2 *793:A 1.68643e-06
115 *876:A2 *876:A1 2.39679e-06
116 *876:A2 *876:A3 2.39679e-06
117 *876:A2 *459:6 6.82202e-07
118 *4:6 *904:B 4.31185e-06
119 *4:6 *997:A 1.39839e-06
120 *4:23 *997:A 2.96955e-05
121 *4:23 *69:10 1.46651e-05
122 *4:23 *516:8 0
123 *4:39 *590:A2 3.28688e-05
124 *4:39 *807:A1 1.19839e-05
125 *4:39 *856:A4 1.72405e-05
126 *4:39 *859:A 5.52692e-06
127 *4:39 *859:B2 7.72537e-06
128 *4:39 *859:C2 0
129 *4:39 *904:B 0
130 *4:39 *928:D 1.08945e-05
131 *4:39 *928:CK 7.63917e-05
132 *4:39 *944:D 2.70833e-06
133 *4:39 *997:A 2.52965e-06
134 *4:39 *1075:A 0
135 *4:39 *49:14 2.20468e-05
136 *4:39 *288:16 0
137 *4:39 *463:14 4.32144e-07
138 *4:39 *463:37 4.32144e-07
139 *4:39 *515:6 1.01719e-05
140 *4:39 *515:10 4.84924e-06
141 *4:39 *515:27 8.98274e-07
142 *4:39 *515:37 1.33494e-05
143 *4:39 *522:43 1.64054e-05
144 *4:43 *463:14 1.17698e-05
145 *4:43 *515:37 4.52694e-06
146 *4:49 *590:A1 0.000138323
147 *4:49 *605:A1 2.21363e-06
148 *4:49 *867:A1 0
149 *4:49 *867:A3 1.43238e-06
150 *4:49 *1074:A 4.35914e-07
151 *4:49 *1132:A 1.19845e-05
152 *4:49 *108:12 0.000126735
153 *4:49 *135:14 2.90963e-05
154 *4:49 *519:16 4.04025e-05
155 *4:55 *867:A1 5.58821e-06
156 *4:55 *867:A3 1.40196e-06
157 *4:55 *867:A4 6.48216e-07
158 *4:55 *1035:A 2.55787e-06
159 *4:55 *63:64 1.02815e-05
160 *4:55 *460:6 2.08416e-06
161 *4:55 *460:10 1.23134e-05
162 *4:59 *871:A4 1.65484e-05
163 *4:59 *63:64 2.00207e-05
164 *4:59 *460:10 1.87931e-05
165 *4:77 *700:A 3.37286e-06
166 *4:77 *785:A1 1.78153e-05
167 *4:77 *785:A2 1.58381e-05
168 *4:77 *793:B1 1.16785e-05
169 *4:77 *793:B2 4.12664e-06
170 *4:77 *793:C1 9.49085e-05
171 *4:77 *871:A1 0
172 *4:77 *872:A 3.85541e-05
173 *4:77 *877:A 5.48608e-05
174 *4:77 *1013:A 3.55485e-05
175 *4:77 *216:33 2.52965e-06
176 *4:77 *235:20 5.42579e-06
177 *4:77 *460:6 1.77206e-05
178 *4:77 *462:16 2.25191e-07
179 *4:77 *462:80 1.60038e-06
180 *4:77 *518:14 8.194e-06
181 *4:83 *799:A2 0
182 *4:83 *804:A 9.87466e-06
183 *4:83 *918:CK 1.28122e-06
184 *4:83 *1120:A 1.80259e-05
185 *4:83 *459:20 4.73121e-05
186 *4:83 *462:16 2.08416e-06
187 *4:83 *462:20 2.19374e-06
188 *4:83 *557:8 3.54439e-05
189 *4:83 *558:20 1.85361e-05
190 *4:107 *793:C1 8.98197e-05
191 *4:107 *804:C2 6.17842e-06
192 *4:107 *876:A1 4.43868e-06
193 *4:107 *876:A3 3.56571e-05
194 *4:152 *653:A1 1.78501e-05
195 *4:152 *653:A2 1.70704e-05
196 *4:152 *659:A 0
197 *4:152 *660:A 1.16229e-06
198 *4:152 *660:B1 2.99326e-05
199 *4:152 *664:A 9.62051e-07
200 *4:152 *881:B1 7.19036e-06
201 *4:152 *923:CK 3.90263e-05
202 *4:152 *1118:A 1.15932e-05
203 *4:152 *63:64 3.88498e-05
204 *4:152 *108:12 0.000185012
205 *4:152 *458:20 0
206 *4:152 *518:59 3.34585e-06
207 *4:152 *535:52 8.10086e-06
208 *4:158 *881:B2 3.23723e-07
209 *4:158 *923:D 0
210 *4:158 *923:CK 2.07469e-05
211 *4:158 *1135:A 0.000129055
212 *4:158 *1138:A 4.22256e-06
213 *4:158 *54:24 3.43066e-05
214 *4:158 *458:20 0
215 *4:169 *824:A1 3.02372e-05
216 *4:169 *895:B 0
217 *4:169 *1004:A 0
218 *4:169 *1135:A 1.72426e-05
219 *4:169 *1138:A 6.0084e-06
220 *4:169 *359:8 1.46625e-05
221 *4:169 *359:19 1.81716e-05
222 *4:169 *359:32 2.29398e-05
223 *4:169 *457:22 0
224 *4:169 *582:20 1.45753e-05
225 *4:173 *767:A1 2.43548e-06
226 *4:173 *824:A1 5.52959e-06
227 *4:173 *352:124 3.09411e-06
228 *4:184 *625:A2 3.54695e-06
229 *4:184 *628:A 7.0096e-06
230 *4:184 *767:A1 1.21774e-06
231 *4:184 *768:B2 5.48634e-05
232 *4:184 *824:A1 7.30645e-06
233 *4:184 *74:8 2.09952e-06
234 *4:184 *74:17 5.32771e-06
235 *4:184 *451:27 2.81186e-06
236 *4:184 *535:24 0.000103693
237 *4:192 *628:A 2.29863e-05
238 *4:192 *768:A 2.32955e-05
239 *4:192 *769:A2 6.54288e-06
240 *4:192 *789:B1 3.23209e-05
241 *4:192 *836:A1 8.26038e-06
242 *4:192 *836:A4 7.72792e-06
243 *4:192 *561:77 1.87637e-06
244 *4:213 *643:A1 1.87124e-05
245 *4:213 *645:B1 4.07776e-05
246 *4:213 *645:B2 3.15972e-05
247 *4:213 *836:A1 0.000105696
248 *4:213 *836:A3 4.78809e-05
249 *4:213 *836:A4 8.13671e-05
250 *4:213 *841:A1 1.28122e-06
251 *4:213 *78:14 2.94455e-05
252 *4:213 *526:43 2.08098e-06
253 *4:213 *544:29 1.56471e-05
254 *4:213 *545:58 6.76163e-06
255 *4:250 *624:A 5.7295e-06
256 *4:250 *625:A1 1.02733e-05
257 *4:250 *768:C1 1.6231e-05
258 *4:250 *819:A2 2.90193e-06
259 *4:250 *821:A1 4.13413e-06
260 *4:250 *824:A1 3.61553e-05
261 *4:250 *824:A2 0
262 *4:250 *352:124 5.98684e-05
*RES
1 *914:QN *4:6 6.25 
2 *4:6 *612:A3 16.3571 
3 *4:6 *4:23 8.64286 
4 *4:23 *4:39 43 
5 *4:39 *4:43 6.75 
6 *4:43 *4:49 19.2143 
7 *4:49 *4:55 11.5714 
8 *4:55 *4:59 10 
9 *4:59 *871:A2 9.25 
10 *4:59 *862:A2 6.75 
11 *4:55 *4:77 38.75 
12 *4:77 *4:83 15.9286 
13 *4:83 *816:A2 23.7857 
14 *4:83 *811:A2 5 
15 *4:77 *4:107 10 
16 *4:107 *800:A2 24.7143 
17 *4:107 *876:A2 10.75 
18 *4:49 *867:A2 5 
19 *4:43 *4:152 35.9643 
20 *4:152 *4:158 17.7857 
21 *4:158 *832:A3 14.75 
22 *4:158 *4:169 13.8214 
23 *4:169 *4:173 6.25 
24 *4:173 *767:A2 5 
25 *4:173 *4:184 15.8214 
26 *4:184 *4:192 16.1071 
27 *4:192 *836:A2 5 
28 *4:192 *4:213 41.7857 
29 *4:213 *846:A2 16.3571 
30 *4:213 *841:A2 12.9643 
31 *4:184 *769:A3 14.9643 
32 *4:169 *4:250 14.5357 
33 *4:250 *821:A2 7.25 
34 *4:250 *828:B1 23.6071 
35 *4:152 *881:A 5 
36 *4:39 *856:A2 7.35714 
37 *4:23 *851:A2 20.3214 
*END

*D_NET *5 0.000244598
*CONN
*I *917:D I *D DFF_X1
*I *790:ZN O *D AOI21_X2
*CAP
1 *917:D 9.56626e-05
2 *790:ZN 9.56626e-05
3 *917:D *769:A1 0
4 *917:D *784:B1 2.43548e-06