*SPEF "ieee 1481-1999"
*DESIGN "gcd"
*DATE "22:30:27 Saturday February 14, 2026"
*VENDOR "The OpenROAD Project"
*PROGRAM "OpenROAD"
*VERSION "26Q1-951-g6975124cf2"
*DESIGN_FLOW "NAME_SCOPE LOCAL" "PIN_CAP NONE"
*DIVIDER /
*DELIMITER :
*BUS_DELIMITER []
*T_UNIT 1 NS
*C_UNIT 1 PF
*R_UNIT 1 OHM
*L_UNIT 1 HENRY

*NAME_MAP
*1 _000_
*2 _001_
*3 _002_
*4 _003_
*5 _004_
*6 _005_
*7 _006_
*8 _007_
*9 _008_
*10 _009_
*11 _010_
*12 _011_
*13 _012_
*14 _013_
*15 _014_
*16 _015_
*17 _016_
*18 _017_
*19 _018_
*20 _019_
*21 _020_
*22 _021_
*23 _022_
*24 _023_
*25 _024_
*26 _025_
*27 _026_
*28 _027_
*29 _028_
*30 _029_
*31 _030_
*32 _031_
*33 _032_
*34 _033_
*35 _034_
*36 _035_
*37 resp_msg[15]
*38 resp_msg[14]
*39 resp_msg[13]
*40 resp_msg[12]
*41 resp_msg[11]
*42 resp_msg[10]
*43 resp_msg[0]
*44 _043_
*45 req_rdy
*46 resp_rdy
*47 reset
*48 req_val
*49 _048_
*50 req_msg[9]
*51 req_msg[8]
*52 req_msg[7]
*53 req_msg[6]
*54 _053_
*55 req_msg[5]
*56 req_msg[4]
*57 req_msg[3]
*58 _057_
*59 _058_
*60 req_msg[31]
*61 req_msg[30]
*62 _061_
*63 _062_
*64 req_msg[2]
*65 req_msg[29]
*66 _065_
*67 _066_
*68 _067_
*69 _068_
*70 req_msg[28]
*71 req_msg[27]
*72 req_msg[26]
*73 _072_
*74 _073_
*75 req_msg[25]
*76 _075_
*77 _076_
*78 _077_
*79 _078_
*80 _079_
*81 req_msg[24]
*82 _081_
*83 req_msg[23]
*84 _083_
*85 _084_
*86 _085_
*87 _086_
*88 _087_
*89 _088_
*90 _089_
*91 _090_
*92 _091_
*93 _092_
*94 req_msg[22]
*95 _094_
*96 req_msg[21]
*97 _096_
*98 _097_
*99 _098_
*100 _099_
*101 _100_
*102 _101_
*103 _102_
*104 _103_
*105 _104_
*106 _105_
*107 _106_
*108 _107_
*109 _108_
*110 _109_
*111 _110_
*112 _111_
*113 _112_
*114 _113_
*115 _114_
*116 _115_
*117 _116_
*118 _117_
*119 _118_
*120 _119_
*121 _120_
*122 req_msg[20]
*123 _122_
*124 _123_
*125 _124_
*126 _125_
*127 _126_
*128 _127_
*129 _128_
*130 _129_
*131 _130_
*132 req_msg[1]
*133 _132_
*134 _133_
*135 _134_
*136 _135_
*137 _136_
*138 _137_
*139 _138_
*140 _139_
*141 req_msg[19]
*142 _141_
*143 _142_
*144 _143_
*145 _144_
*146 _145_
*147 _146_
*148 _147_
*149 _148_
*150 _149_
*151 _150_
*152 _151_
*153 _152_
*154 _153_
*155 _154_
*156 _155_
*157 _156_
*158 _157_
*159 req_msg[18]
*160 _159_
*161 req_msg[17]
*162 _161_
*163 _162_
*164 _163_
*165 _164_
*166 _165_
*167 _166_
*168 _167_
*169 _168_
*170 _169_
*171 _170_
*172 _171_
*173 _172_
*174 _173_
*175 _174_
*176 _175_
*177 _176_
*178 _177_
*179 _178_
*180 _179_
*181 _180_
*182 req_msg[16]
*183 _182_
*184 _183_
*185 _184_
*186 _185_
*187 _186_
*188 _187_
*189 _188_
*190 _189_
*191 _190_
*192 _191_
*193 _192_
*194 _193_
*195 _194_
*196 _195_
*197 _196_
*198 _197_
*199 _198_
*200 req_msg[15]
*201 _200_
*202 _201_
*203 _202_
*204 _203_
*205 _204_
*206 _205_
*207 _206_
*208 _207_
*209 _208_
*210 _209_
*211 _210_
*212 _211_
*213 _212_
*214 _213_
*215 _214_
*216 _215_
*217 _216_
*218 _217_
*219 _218_
*220 req_msg[14]
*221 _220_
*222 _221_
*223 _222_
*224 _223_
*225 _224_
*226 _225_
*227 _226_
*228 _227_
*229 _228_
*230 _229_
*231 _230_
*232 _231_
*233 _232_
*234 _233_
*235 _234_
*236 _235_
*237 _236_
*238 _237_
*239 _238_
*240 req_msg[13]
*241 req_msg[12]
*242 req_msg[11]
*243 _242_
*244 _243_
*245 _244_
*246 _245_
*247 _246_
*248 _247_
*249 _248_
*250 _249_
*251 _250_
*252 req_msg[10]
*253 _252_
*254 _253_
*255 _254_
*256 _255_
*257 _256_
*258 _257_
*259 _258_
*260 _259_
*261 _260_
*262 _261_
*263 _262_
*264 _263_
*265 _264_
*266 _265_
*267 _266_
*268 _267_
*269 _268_
*270 _269_
*271 _270_
*272 _271_
*273 _272_
*274 _273_
*275 _274_
*276 _275_
*277 _276_
*278 _277_
*279 _278_
*280 _279_
*281 _280_
*282 _281_
*283 _282_
*284 _283_
*285 _284_
*286 _285_
*287 _286_
*288 _287_
*289 _288_
*290 _289_
*291 _290_
*292 _291_
*293 _292_
*294 _293_
*295 _294_
*296 _295_
*297 _296_
*298 _297_
*299 _298_
*300 req_msg[0]
*301 _300_
*302 _301_
*303 _302_
*304 _303_
*305 _304_
*306 _305_
*307 _306_
*308 _307_
*309 _308_
*310 _309_
*311 _310_
*312 _311_
*313 _312_
*314 _313_
*315 _314_
*316 _315_
*317 _316_
*318 _317_
*319 _318_
*320 _319_
*321 _320_
*322 _321_
*323 _322_
*324 _323_
*325 _324_
*326 _325_
*327 _326_
*328 _327_
*329 _328_
*330 _329_
*331 _330_
*332 _331_
*333 _332_
*334 _333_
*335 _334_
*336 _335_
*337 _336_
*338 _337_
*339 _338_
*340 _339_
*341 _340_
*342 _341_
*343 _342_
*344 _343_
*345 _344_
*346 _345_
*347 _346_
*348 _347_
*349 _348_
*350 clk
*351 ctrl\.state\.out\[1\]
*352 ctrl\.state\.out\[2\]
*353 dpath\.a_lt_b\$in0\[0\]
*354 dpath\.a_lt_b\$in0\[10\]
*355 dpath\.a_lt_b\$in0\[11\]
*356 dpath\.a_lt_b\$in0\[12\]
*357 dpath\.a_lt_b\$in0\[13\]
*358 dpath\.a_lt_b\$in0\[14\]
*359 dpath\.a_lt_b\$in0\[15\]
*360 dpath\.a_lt_b\$in0\[1\]
*361 dpath\.a_lt_b\$in0\[2\]
*362 dpath\.a_lt_b\$in0\[3\]
*363 dpath\.a_lt_b\$in0\[4\]
*364 dpath\.a_lt_b\$in0\[5\]
*365 dpath\.a_lt_b\$in0\[6\]
*366 dpath\.a_lt_b\$in0\[7\]
*367 dpath\.a_lt_b\$in0\[8\]
*368 dpath\.a_lt_b\$in0\[9\]
*369 dpath\.a_lt_b\$in1\[0\]
*370 dpath\.a_lt_b\$in1\[10\]
*371 dpath\.a_lt_b\$in1\[11\]
*372 dpath\.a_lt_b\$in1\[12\]
*373 dpath\.a_lt_b\$in1\[13\]
*374 dpath\.a_lt_b\$in1\[14\]
*375 dpath\.a_lt_b\$in1\[15\]
*376 dpath\.a_lt_b\$in1\[1\]
*377 dpath\.a_lt_b\$in1\[2\]
*378 dpath\.a_lt_b\$in1\[3\]
*379 dpath\.a_lt_b\$in1\[4\]
*380 dpath\.a_lt_b\$in1\[5\]
*381 dpath\.a_lt_b\$in1\[6\]
*382 dpath\.a_lt_b\$in1\[7\]
*383 dpath\.a_lt_b\$in1\[8\]
*384 dpath\.a_lt_b\$in1\[9\]
*385 net1
*386 net2
*387 net3
*388 net4
*389 net5
*390 net6
*391 net7
*392 net8
*393 net9
*394 net10
*395 net11
*396 net12
*397 net13
*398 net14
*399 net15
*400 net16
*401 net17
*402 net18
*403 net19
*404 net20
*405 net21
*406 net22
*407 net23
*408 net24
*409 net25
*410 net26
*411 net27
*412 net28
*413 net29
*414 net30
*415 net31
*416 net32
*417 net36
*418 net33
*419 net34
*420 net37
*421 net38
*422 net39
*423 net40
*424 net41
*425 net42
*426 net43
*427 net44
*428 net45
*429 net46
*430 net47
*431 net48
*432 net49
*433 net50
*434 net51
*435 net52
*436 net35
*437 net53
*440 resp_msg[1]
*441 resp_msg[2]
*442 resp_msg[3]
*443 resp_msg[4]
*444 resp_msg[5]
*445 resp_msg[6]
*446 resp_msg[7]
*447 resp_msg[8]
*448 resp_msg[9]
*449 resp_val
*450 net163
*451 net162
*452 net161
*453 net158
*454 net159
*455 net160
*456 net170
*457 net168
*458 net166
*459 net167
*460 net169
*461 net173
*462 net172
*463 net171
*464 net189
*465 net174
*466 net175
*467 net176
*468 net177
*469 net178
*470 net179
*471 net180
*472 net181
*473 net182
*474 net183
*475 net184
*476 net185
*477 net186
*478 net188
*479 net187
*480 net407
*481 net191
*482 net192
*483 net326
*484 net194
*485 net202
*486 net195
*487 net196
*488 net200
*489 net197
*490 net198
*491 net199
*492 net201
*493 net203
*494 net206
*495 net205
*496 net213
*497 net207
*498 net208
*499 net210
*500 net209
*501 net211
*502 net212
*503 net216
*504 clknet_2_3__leaf_clk
*505 net214
*506 net215
*507 net244
*508 net217
*509 net218
*510 net219
*511 net220
*512 net228
*513 net221
*514 net222
*515 net223
*516 net224
*517 net225
*518 net226
*519 net227
*520 net235
*521 net229
*522 net230
*523 net231
*524 net232
*525 net233
*526 net234
*527 net237
*528 net236
*529 net238
*530 net239
*531 net240
*532 net241
*533 net242
*534 net243
*535 net245
*536 net246
*537 net247
*538 net248
*539 net249
*540 net250
*541 net251
*542 clknet_2_2__leaf_clk
*543 clknet_2_1__leaf_clk
*544 net252
*545 clknet_2_0__leaf_clk
*546 net253
*547 net254
*548 net255
*549 net256
*550 net257
*551 net259
*552 net258
*553 clknet_0_clk
*554 net164
*555 net165
*556 net204
*557 net260
*558 net341
*559 net264
*560 net265
*561 net266
*562 net267
*563 net268
*564 net269
*565 net278
*566 net279
*567 net397
*568 net327
*569 net328
*570 net331
*571 net335
*572 net336
*573 net337
*574 net338
*575 net358
*576 output43
*577 output42
*578 output41
*579 output40
*580 output39
*581 output38
*582 output37
*583 _356_
*584 output36
*585 input35
*586 input34
*587 input33
*588 _361_
*589 input32
*590 input31
*591 input30
*592 input29
*593 _366_
*594 input28
*595 input27
*596 input26
*597 _370_
*598 _371_
*599 input25
*600 input24
*601 _374_
*602 _375_
*603 _376_
*604 input23
*605 _378_
*606 input22
*607 _380_
*608 _381_
*609 _382_
*610 _383_
*611 _384_
*612 input21
*613 input20
*614 _387_
*615 input19
*616 _389_
*617 _390_
*618 _391_
*619 input18
*620 _393_
*621 _394_
*622 _395_
*623 _396_
*624 _397_
*625 _398_
*626 input17
*627 _400_
*628 _401_
*629 input16
*630 _403_
*631 _404_
*632 _405_
*633 _406_
*634 _407_
*635 _408_
*636 _409_
*637 _410_
*638 _411_
*639 _412_
*640 _413_
*641 input15
*642 _415_
*643 _416_
*644 input14
*645 _418_
*646 _419_
*647 _420_
*648 _421_
*649 _422_
*650 _423_
*651 _424_
*652 _425_
*653 _426_
*654 _427_
*655 _428_
*656 _429_
*657 _430_
*658 _431_
*659 _432_
*660 _433_
*661 _434_
*662 _435_
*663 _436_
*664 _437_
*665 _438_
*666 _439_
*667 _440_
*668 _441_
*669 _442_
*670 _443_
*671 _444_
*672 _445_
*673 input13
*674 _447_
*675 _448_
*676 _449_
*677 _450_
*678 _451_
*679 _452_
*680 _453_
*681 _454_
*682 _455_
*683 _456_
*684 _457_
*685 input12
*686 _459_
*687 _460_
*688 _461_
*689 _462_
*690 _463_
*691 _464_
*692 _465_
*693 _466_
*694 _467_
*695 input11
*696 _469_
*697 _470_
*698 _471_
*699 _472_
*700 _473_
*701 _474_
*702 _475_
*703 _476_
*704 _477_
*705 _478_
*706 _479_
*707 _480_
*708 _481_
*709 _482_
*710 _483_
*711 _484_
*712 _485_
*713 _486_
*714 input10
*715 _488_
*716 _489_
*717 input9
*718 _491_
*719 _492_
*720 _493_
*721 _494_
*722 _495_
*723 _496_
*724 _497_
*725 _498_
*726 _499_
*727 _500_
*728 _501_
*729 _502_
*730 _503_
*731 _504_
*732 _505_
*733 _506_
*734 _507_
*735 _508_
*736 _509_
*737 _510_
*738 _511_
*739 input8
*740 _513_
*741 _514_
*742 _515_
*743 _516_
*744 _517_
*745 _518_
*746 _519_
*747 _520_
*748 _521_
*749 _522_
*750 _523_
*751 _524_
*752 _525_
*753 _526_
*754 _527_
*755 _528_
*756 _529_
*757 _530_
*758 _531_
*759 input7
*760 _533_
*761 _534_
*762 _535_
*763 _536_
*764 _537_
*765 _538_
*766 _539_
*767 _540_
*768 _541_
*769 _542_
*770 _543_
*771 _544_
*772 _545_
*773 _546_
*774 _547_
*775 _548_
*776 _549_
*777 _550_
*778 _551_
*779 input6
*780 _553_
*781 _554_
*782 _555_
*783 _556_
*784 _557_
*785 _558_
*786 _559_
*787 _560_
*788 _561_
*789 _562_
*790 _563_
*791 _564_
*792 _565_
*793 _566_
*794 _567_
*795 _568_
*796 _569_
*797 _570_
*798 _571_
*799 _572_
*800 _573_
*801 input5
*802 input4
*803 input3
*804 _577_
*805 _578_
*806 _579_
*807 _580_
*808 _581_
*809 _582_
*810 _583_
*811 _584_
*812 _585_
*813 _586_
*814 _587_
*815 input2
*816 _589_
*817 _590_
*818 _591_
*819 _592_
*820 _593_
*821 _594_
*822 _595_
*823 _596_
*824 _597_
*825 _598_
*826 _599_
*827 _600_
*828 _601_
*829 _602_
*830 _603_
*831 _604_
*832 _605_
*833 _606_
*834 _607_
*835 _608_
*836 _609_
*837 _610_
*838 _611_
*839 _612_
*840 _613_
*841 _614_
*842 _615_
*843 _616_
*844 _617_
*845 _618_
*846 _619_
*847 _620_
*848 _621_
*849 _622_
*850 _623_
*851 _624_
*852 _625_
*853 _626_
*854 _627_
*855 _628_
*856 _629_
*857 _630_
*858 _631_
*859 _632_
*860 _633_
*861 _634_
*862 _635_
*863 _636_
*864 _637_
*865 _638_
*866 _639_
*867 _640_
*868 _641_
*869 _642_
*870 _643_
*871 _644_
*872 _645_
*873 _646_
*874 _647_
*875 input1
*876 _649_
*877 _650_
*878 _651_
*879 _652_
*880 _653_
*881 _654_
*882 _655_
*883 _656_
*884 _657_
*885 _658_
*886 _659_
*887 _660_
*888 _661_
*889 _662_
*890 _663_
*891 _664_
*892 _665_
*893 _666_
*894 _667_
*895 _668_
*896 _669_
*897 _670_
*898 _671_
*899 _672_
*900 _673_
*901 _674_
*902 _675_
*903 _676_
*904 _677_
*905 _678_
*906 _679_
*907 ctrl\.state\.out\[0\]\$_DFF_P_
*908 ctrl\.state\.out\[1\]\$_DFF_P_
*909 ctrl\.state\.out\[2\]\$_DFF_P_
*910 dpath\.a_reg\.out\[0\]\$_DFFE_PP_
*911 dpath\.a_reg\.out\[10\]\$_DFFE_PP_
*912 dpath\.a_reg\.out\[11\]\$_DFFE_PP_
*913 dpath\.a_reg\.out\[12\]\$_DFFE_PP_
*914 dpath\.a_reg\.out\[13\]\$_DFFE_PP_
*915 dpath\.a_reg\.out\[14\]\$_DFFE_PP_
*916 dpath\.a_reg\.out\[15\]\$_DFFE_PP_
*917 dpath\.a_reg\.out\[1\]\$_DFFE_PP_
*918 dpath\.a_reg\.out\[2\]\$_DFFE_PP_
*919 dpath\.a_reg\.out\[3\]\$_DFFE_PP_
*920 dpath\.a_reg\.out\[4\]\$_DFFE_PP_
*921 dpath\.a_reg\.out\[5\]\$_DFFE_PP_
*922 dpath\.a_reg\.out\[6\]\$_DFFE_PP_
*923 dpath\.a_reg\.out\[7\]\$_DFFE_PP_
*924 dpath\.a_reg\.out\[8\]\$_DFFE_PP_
*925 dpath\.a_reg\.out\[9\]\$_DFFE_PP_
*926 dpath\.b_reg\.out\[0\]\$_DFFE_PP_
*927 dpath\.b_reg\.out\[10\]\$_DFFE_PP_
*928 dpath\.b_reg\.out\[11\]\$_DFFE_PP_
*929 dpath\.b_reg\.out\[12\]\$_DFFE_PP_
*930 dpath\.b_reg\.out\[13\]\$_DFFE_PP_
*931 dpath\.b_reg\.out\[14\]\$_DFFE_PP_
*932 dpath\.b_reg\.out\[15\]\$_DFFE_PP_
*933 dpath\.b_reg\.out\[1\]\$_DFFE_PP_
*934 dpath\.b_reg\.out\[2\]\$_DFFE_PP_
*935 dpath\.b_reg\.out\[3\]\$_DFFE_PP_
*936 dpath\.b_reg\.out\[4\]\$_DFFE_PP_
*937 dpath\.b_reg\.out\[5\]\$_DFFE_PP_
*938 dpath\.b_reg\.out\[6\]\$_DFFE_PP_
*939 dpath\.b_reg\.out\[7\]\$_DFFE_PP_
*940 dpath\.b_reg\.out\[8\]\$_DFFE_PP_
*941 dpath\.b_reg\.out\[9\]\$_DFFE_PP_
*942 PHY_EDGE_ROW_0_Right_0
*943 PHY_EDGE_ROW_1_Right_1
*944 PHY_EDGE_ROW_2_Right_2
*945 PHY_EDGE_ROW_3_Right_3
*946 PHY_EDGE_ROW_4_Right_4
*947 PHY_EDGE_ROW_5_Right_5
*948 PHY_EDGE_ROW_6_Right_6
*949 PHY_EDGE_ROW_7_Right_7
*950 PHY_EDGE_ROW_8_Right_8
*951 PHY_EDGE_ROW_9_Right_9
*952 PHY_EDGE_ROW_10_Right_10
*953 PHY_EDGE_ROW_11_Right_11
*954 PHY_EDGE_ROW_12_Right_12
*955 PHY_EDGE_ROW_13_Right_13
*956 PHY_EDGE_ROW_14_Right_14
*957 PHY_EDGE_ROW_15_Right_15
*958 PHY_EDGE_ROW_16_Right_16
*959 PHY_EDGE_ROW_17_Right_17
*960 PHY_EDGE_ROW_18_Right_18
*961 PHY_EDGE_ROW_19_Right_19
*962 PHY_EDGE_ROW_20_Right_20
*963 PHY_EDGE_ROW_21_Right_21
*964 PHY_EDGE_ROW_0_Left_22
*965 PHY_EDGE_ROW_1_Left_23
*966 PHY_EDGE_ROW_2_Left_24
*967 PHY_EDGE_ROW_3_Left_25
*968 PHY_EDGE_ROW_4_Left_26
*969 PHY_EDGE_ROW_5_Left_27
*970 PHY_EDGE_ROW_6_Left_28
*971 PHY_EDGE_ROW_7_Left_29
*972 PHY_EDGE_ROW_8_Left_30
*973 PHY_EDGE_ROW_9_Left_31
*974 PHY_EDGE_ROW_10_Left_32
*975 PHY_EDGE_ROW_11_Left_33
*976 PHY_EDGE_ROW_12_Left_34
*977 PHY_EDGE_ROW_13_Left_35
*978 PHY_EDGE_ROW_14_Left_36
*979 PHY_EDGE_ROW_15_Left_37
*980 PHY_EDGE_ROW_16_Left_38
*981 PHY_EDGE_ROW_17_Left_39
*982 PHY_EDGE_ROW_18_Left_40
*983 PHY_EDGE_ROW_19_Left_41
*984 PHY_EDGE_ROW_20_Left_42
*985 PHY_EDGE_ROW_21_Left_43
*986 output44
*987 output45
*988 output46
*989 output47
*990 output48
*991 output49
*992 output50
*993 output51
*994 output52
*995 output53
*996 place163
*997 place162
*998 place161
*999 place158
*1000 place159
*1001 place160
*1002 place170
*1003 place168
*1004 place166
*1005 place167
*1006 place169
*1007 place173
*1008 place172
*1009 place171
*1010 place189
*1011 place174
*1012 place175
*1013 place176
*1014 place177
*1015 place178
*1016 place179
*1017 place180
*1018 place181
*1019 place182
*1020 place183
*1021 place184
*1022 place185
*1023 place186
*1024 place188
*1025 place187
*1026 rebuffer407
*1027 place191
*1028 place192
*1029 rebuffer326
*1030 place194
*1031 place202
*1032 place195
*1033 place196
*1034 place200
*1035 place197
*1036 place198
*1037 place199
*1038 place201
*1039 place203
*1040 place206
*1041 place205
*1042 place213
*1043 place207
*1044 place208
*1045 place210
*1046 place209
*1047 place211
*1048 place212
*1049 place216
*1050 clkbuf_2_3__f_clk
*1051 place214
*1052 place215
*1053 place244
*1054 place217
*1055 place218
*1056 place219
*1057 place220
*1058 place228
*1059 place221
*1060 place222
*1061 place223
*1062 place224
*1063 place225
*1064 place226
*1065 place227
*1066 place235
*1067 place229
*1068 place230
*1069 place231
*1070 place232
*1071 place233
*1072 place234
*1073 place237
*1074 place236
*1075 place238
*1076 place239
*1077 place240
*1078 place241
*1079 place242
*1080 place243
*1081 place245
*1082 place246
*1083 place247
*1084 place248
*1085 place249
*1086 place250
*1087 place251
*1088 clkbuf_2_2__f_clk
*1089 clkbuf_2_1__f_clk
*1090 place252
*1091 clkbuf_2_0__f_clk
*1092 place253
*1093 place254
*1094 place255
*1095 place256
*1096 place257
*1097 place259
*1098 place258
*1099 clkbuf_0_clk
*1100 place164
*1101 place165
*1102 place204
*1103 clkload0
*1104 clkload1
*1105 rebuffer260
*1106 clone341
*1107 rebuffer264
*1108 rebuffer265
*1109 rebuffer266
*1110 rebuffer267
*1111 rebuffer268
*1112 rebuffer269
*1113 rebuffer278
*1114 rebuffer279
*1115 rebuffer397
*1116 rebuffer327
*1117 rebuffer328
*1118 rebuffer331
*1119 rebuffer335
*1120 rebuffer336
*1121 rebuffer337
*1122 rebuffer338
*1123 rebuffer358
*1124 FILLER_0_1
*1125 FILLER_0_43
*1126 FILLER_0_47
*1127 FILLER_0_49
*1128 FILLER_0_57
*1129 FILLER_0_78
*1130 FILLER_0_82
*1131 FILLER_0_87
*1132 FILLER_0_99
*1133 FILLER_0_107
*1134 FILLER_0_118
*1135 FILLER_0_150
*1136 FILLER_0_158
*1137 FILLER_0_162
*1138 FILLER_0_164
*1139 FILLER_1_1
*1140 FILLER_1_17
*1141 FILLER_1_25
*1142 FILLER_1_27
*1143 FILLER_1_62
*1144 FILLER_1_87
*1145 FILLER_1_131
*1146 FILLER_1_163
*1147 FILLER_2_1
*1148 FILLER_2_33
*1149 FILLER_2_41
*1150 FILLER_2_56
*1151 FILLER_2_61
*1152 FILLER_2_73
*1153 FILLER_2_77
*1154 FILLER_2_81
*1155 FILLER_2_86
*1156 FILLER_2_99
*1157 FILLER_2_103
*1158 FILLER_2_105
*1159 FILLER_2_120
*1160 FILLER_2_130
*1161 FILLER_2_155
*1162 FILLER_2_163
*1163 FILLER_3_1
*1164 FILLER_3_17
*1165 FILLER_3_21
*1166 FILLER_3_23
*1167 FILLER_3_27
*1168 FILLER_3_35
*1169 FILLER_3_37
*1170 FILLER_3_58
*1171 FILLER_3_83
*1172 FILLER_3_91
*1173 FILLER_3_99
*1174 FILLER_3_114
*1175 FILLER_3_136
*1176 FILLER_3_148
*1177 FILLER_3_156
*1178 FILLER_3_158
*1179 FILLER_3_162
*1180 FILLER_3_164
*1181 FILLER_4_1
*1182 FILLER_4_5
*1183 FILLER_4_7
*1184 FILLER_4_22
*1185 FILLER_4_66
*1186 FILLER_4_83
*1187 FILLER_4_91
*1188 FILLER_4_93
*1189 FILLER_4_103
*1190 FILLER_4_109
*1191 FILLER_4_113
*1192 FILLER_4_115
*1193 FILLER_4_122
*1194 FILLER_4_148
*1195 FILLER_4_164
*1196 FILLER_5_36
*1197 FILLER_5_119
*1198 FILLER_5_141
*1199 FILLER_5_157
*1200 FILLER_6_54
*1201 FILLER_6_82
*1202 FILLER_6_126
*1203 FILLER_6_130
*1204 FILLER_6_132
*1205 FILLER_6_146
*1206 FILLER_6_160
*1207 FILLER_6_164
*1208 FILLER_7_1
*1209 FILLER_7_9
*1210 FILLER_7_37
*1211 FILLER_7_56
*1212 FILLER_7_63
*1213 FILLER_7_95
*1214 FILLER_7_119
*1215 FILLER_7_125
*1216 FILLER_7_163
*1217 FILLER_8_1
*1218 FILLER_8_5
*1219 FILLER_8_9
*1220 FILLER_8_14
*1221 FILLER_8_24
*1222 FILLER_8_30
*1223 FILLER_8_45
*1224 FILLER_8_79
*1225 FILLER_8_104
*1226 FILLER_8_108
*1227 FILLER_8_148
*1228 FILLER_8_157
*1229 FILLER_8_164
*1230 FILLER_9_1
*1231 FILLER_9_25
*1232 FILLER_9_114
*1233 FILLER_9_119
*1234 FILLER_9_163
*1235 FILLER_10_1
*1236 FILLER_10_5
*1237 FILLER_10_102
*1238 FILLER_10_140
*1239 FILLER_10_149
*1240 FILLER_10_157
*1241 FILLER_11_1
*1242 FILLER_11_9
*1243 FILLER_11_23
*1244 FILLER_11_41
*1245 FILLER_11_90
*1246 FILLER_11_98
*1247 FILLER_11_105
*1248 FILLER_11_113
*1249 FILLER_11_117
*1250 FILLER_12_1
*1251 FILLER_12_5
*1252 FILLER_12_9
*1253 FILLER_12_16
*1254 FILLER_12_43
*1255 FILLER_12_47
*1256 FILLER_12_51
*1257 FILLER_12_53
*1258 FILLER_12_57
*1259 FILLER_12_94
*1260 FILLER_12_104
*1261 FILLER_12_112
*1262 FILLER_12_114
*1263 FILLER_12_131
*1264 FILLER_13_4
*1265 FILLER_13_6
*1266 FILLER_13_17
*1267 FILLER_13_25
*1268 FILLER_13_60
*1269 FILLER_13_64
*1270 FILLER_13_70
*1271 FILLER_13_116
*1272 FILLER_13_132
*1273 FILLER_14_1
*1274 FILLER_14_5
*1275 FILLER_14_45
*1276 FILLER_14_61
*1277 FILLER_14_81
*1278 FILLER_14_90
*1279 FILLER_14_103
*1280 FILLER_14_161
*1281 FILLER_15_1
*1282 FILLER_15_23
*1283 FILLER_15_49
*1284 FILLER_15_53
*1285 FILLER_15_91
*1286 FILLER_15_137
*1287 FILLER_16_1
*1288 FILLER_16_17
*1289 FILLER_16_32
*1290 FILLER_16_40
*1291 FILLER_16_49
*1292 FILLER_17_4
*1293 FILLER_17_6
*1294 FILLER_17_53
*1295 FILLER_17_61
*1296 FILLER_17_73
*1297 FILLER_17_78
*1298 FILLER_17_105
*1299 FILLER_17_160
*1300 FILLER_18_29
*1301 FILLER_18_37
*1302 FILLER_18_41
*1303 FILLER_18_60
*1304 FILLER_18_68
*1305 FILLER_18_127
*1306 FILLER_18_159
*1307 FILLER_18_163
*1308 FILLER_19_1
*1309 FILLER_19_5
*1310 FILLER_19_9
*1311 FILLER_19_17
*1312 FILLER_19_52
*1313 FILLER_19_54
*1314 FILLER_19_71
*1315 FILLER_19_77
*1316 FILLER_19_84
*1317 FILLER_19_116
*1318 FILLER_19_158
*1319 FILLER_20_1
*1320 FILLER_20_33
*1321 FILLER_20_37
*1322 FILLER_20_39
*1323 FILLER_20_61
*1324 FILLER_20_74
*1325 FILLER_20_76
*1326 FILLER_20_80
*1327 FILLER_20_84
*1328 FILLER_20_93
*1329 FILLER_20_159
*1330 FILLER_20_161
*1331 FILLER_21_1
*1332 FILLER_21_33
*1333 FILLER_21_49
*1334 FILLER_21_61
*1335 FILLER_21_66
*1336 FILLER_21_70
*1337 FILLER_21_81
*1338 FILLER_21_88
*1339 FILLER_21_92
*1340 FILLER_21_96
*1341 FILLER_21_109
*1342 FILLER_21_125
*1343 FILLER_21_155
*1344 FILLER_21_163

*PORTS
clk I
req_msg[0] I
req_msg[10] I
req_msg[11] I
req_msg[12] I
req_msg[13] I
req_msg[14] I
req_msg[15] I
req_msg[16] I
req_msg[17] I
req_msg[18] I
req_msg[19] I
req_msg[1] I
req_msg[20] I
req_msg[21] I
req_msg[22] I
req_msg[23] I
req_msg[24] I
req_msg[25] I
req_msg[26] I
req_msg[27] I
req_msg[28] I
req_msg[29] I
req_msg[2] I
req_msg[30] I
req_msg[31] I
req_msg[3] I
req_msg[4] I
req_msg[5] I
req_msg[6] I
req_msg[7] I
req_msg[8] I
req_msg[9] I
req_rdy O
req_val I
reset I
resp_msg[0] O
resp_msg[10] O
resp_msg[11] O
resp_msg[12] O
resp_msg[13] O
resp_msg[14] O
resp_msg[15] O
resp_msg[1] O
resp_msg[2] O
resp_msg[3] O
resp_msg[4] O
resp_msg[5] O
resp_msg[6] O
resp_msg[7] O
resp_msg[8] O
resp_msg[9] O
resp_rdy I
resp_val O

*D_NET *1 0.000272341
*CONN
*I *907:D I *D DFF_X1
*I *614:ZN O *D OAI21_X1
*CAP
1 *907:D 9.70815e-05
2 *614:ZN 9.70815e-05
3 *907:D *601:B2 0
4 *907:D *614:B1 3.90891e-05
5 *907:D *908:CK 0
6 *907:D *909:D 0
7 *907:D *4:194 3.90891e-05
8 *907:D *352:12 0
9 *907:D *352:52 0
*RES
1 *614:ZN *907:D 30.7857 
*END

*D_NET *2 0.000252152
*CONN
*I *908:D I *D DFF_X1
*I *610:ZN O *D INV_X1
*CAP
1 *908:D 0.000102743
2 *610:ZN 0.000102743
3 *908:D *610:A 5.75996e-06
4 *908:D *614:A 2.16072e-07
5 *908:D *897:B 3.90891e-05
6 *908:D *909:D 0
7 *908:D *67:12 1.60038e-06
*RES
1 *610:ZN *908:D 31.4643 
*END

*D_NET *3 0.000487894
*CONN
*I *909:D I *D DFF_X1
*I *602:ZN O *D NOR2_X1
*CAP
1 *909:D 0.000127544
2 *602:ZN 0.000127544
3 *909:D *601:B2 5.8309e-05
4 *909:D *602:A2 2.39205e-05
5 *909:D *614:B2 1.84823e-05
6 *909:D *852:C2 7.19036e-06
7 *909:D *908:CK 5.56848e-05
8 *909:D *909:CK 0
9 *909:D *543:27 6.92191e-05
10 *907:D *909:D 0
11 *908:D *909:D 0
*RES
1 *602:ZN *909:D 37.6786 
*END

*D_NET *4 0.0106873
*CONN
*I *834:A2 I *D AND4_X1
*I *839:A2 I *D AND4_X2
*I *829:A2 I *D AND4_X1
*I *821:B1 I *D AOI21_X1
*I *762:A3 I *D AND3_X1
*I *814:A2 I *D AND3_X1
*I *760:A2 I *D NAND2_X1
*I *844:A2 I *D AND4_X1
*I *605:A3 I *D AND3_X1
*I *874:A I *D OAI21_X4
*I *825:A3 I *D NAND3_X1
*I *809:A2 I *D AND4_X1
*I *804:A2 I *D AND4_X1
*I *849:A2 I *D AND4_X1
*I *855:A2 I *D AND4_X1
*I *864:A2 I *D AND4_X1
*I *869:A2 I *D AND4_X2
*I *793:A2 I *D NAND2_X1
*I *860:A2 I *D AND4_X1
*I *907:QN O *D DFF_X1
*CAP
1 *834:A2 3.86394e-05
2 *839:A2 0.000110754
3 *829:A2 0
4 *821:B1 4.29147e-05
5 *762:A3 1.48485e-05
6 *814:A2 8.37875e-05
7 *760:A2 6.77316e-05
8 *844:A2 3.30396e-05
9 *605:A3 2.02435e-05
10 *874:A 0
11 *825:A3 0
12 *809:A2 6.9959e-05
13 *804:A2 6.9772e-05
14 *849:A2 1.42903e-05
15 *855:A2 0
16 *864:A2 3.55571e-05
17 *869:A2 5.15945e-05
18 *793:A2 0.000205266
19 *860:A2 6.70759e-06
20 *907:QN 8.71307e-06
21 *4:248 0.000166082
22 *4:246 7.66098e-05
23 *4:242 0.000337234
24 *4:230 0.00036396
25 *4:226 0.000325818
26 *4:220 0.000306611
27 *4:207 0.000242153
28 *4:194 0.000185702
29 *4:154 0.000332945
30 *4:142 0.000436059
31 *4:120 0.000362033
32 *4:103 0.000224944
33 *4:85 3.55571e-05
34 *4:47 0.000446309
35 *4:35 0.000228483
36 *4:22 0.000144074
37 *4:16 0.000375831
38 *4:6 0.000320837
39 *605:A3 *605:A1 2.11458e-06
40 *605:A3 *608:B2 1.21774e-06
41 *605:A3 *417:36 1.21774e-06
42 *605:A3 *419:14 0
43 *760:A2 *812:A2 7.31427e-05
44 *760:A2 *998:A 1.60856e-05
45 *760:A2 *239:12 5.20238e-07
46 *760:A2 *526:25 3.49932e-05
47 *760:A2 *532:48 6.23072e-05
48 *762:A3 *762:A2 1.32348e-05
49 *762:A3 *452:22 0
50 *762:A3 *515:180 3.65322e-06
51 *793:A2 *677:A1 3.03823e-05
52 *793:A2 *677:A2 8.92325e-06
53 *793:A2 *679:A1 1.18589e-06
54 *793:A2 *684:A 1.91498e-06
55 *793:A2 *868:A1 1.61231e-05
56 *793:A2 *868:A3 2.32686e-05
57 *793:A2 *870:A 2.87606e-05
58 *793:A2 *872:A 7.74364e-06
59 *793:A2 *906:B 7.19036e-06
60 *793:A2 *1028:A 6.38328e-07
61 *793:A2 *435:10 1.03979e-05
62 *793:A2 *515:54 1.44762e-05
63 *793:A2 *516:24 0
64 *793:A2 *516:43 1.04651e-05
65 *793:A2 *531:35 3.28137e-06
66 *804:A2 *597:A2 2.39679e-06
67 *804:A2 *713:C2 1.11949e-05
68 *804:A2 *798:A1 4.32392e-06
69 *804:A2 *804:A4 8.43215e-07
70 *804:A2 *805:A 0.00013034
71 *804:A2 *211:26 2.7895e-05
72 *804:A2 *211:40 1.72426e-05
73 *804:A2 *529:29 7.72537e-06
74 *804:A2 *547:34 6.24125e-06
75 *809:A2 *713:C2 7.01223e-06
76 *809:A2 *805:A 5.33226e-05
77 *809:A2 *809:A1 3.22834e-06
78 *809:A2 *809:A3 3.22834e-06
79 *809:A2 *810:B1 1.54174e-05
80 *809:A2 *211:26 1.16962e-05
81 *809:A2 *530:10 6.85774e-07
82 *814:A2 *762:A2 0
83 *814:A2 *812:A2 0
84 *814:A2 *813:A 1.39839e-06
85 *814:A2 *814:A1 2.75346e-06
86 *814:A2 *816:B2 6.38328e-07
87 *814:A2 *887:B 1.5016e-05
88 *814:A2 *998:A 1.80284e-05
89 *814:A2 *1004:A 0
90 *814:A2 *217:12 3.19164e-07
91 *814:A2 *250:8 0
92 *814:A2 *452:10 2.97611e-06
93 *814:A2 *452:22 0
94 *821:B1 *821:A 7.19036e-06
95 *821:B1 *821:B2 3.56012e-06
96 *821:B1 *1072:A 2.39679e-06
97 *821:B1 *63:24 1.13365e-05
98 *821:B1 *184:14 3.01863e-05
99 *821:B1 *515:180 2.63455e-06
100 *821:B1 *526:25 1.95018e-06
101 *834:A2 *834:A1 6.83122e-05
102 *834:A2 *834:A4 3.65322e-06
103 *834:A2 *835:B1 3.13928e-05
104 *834:A2 *840:B2 1.87637e-06
105 *834:A2 *842:C2 1.17093e-06
106 *834:A2 *455:85 7.72537e-06
107 *834:A2 *539:31 0
108 *839:A2 *627:B 2.16072e-07
109 *839:A2 *636:A1 3.38526e-06
110 *839:A2 *638:A 0
111 *839:A2 *638:B2 5.31684e-05
112 *839:A2 *839:A1 1.74934e-05
113 *839:A2 *839:A3 1.25189e-05
114 *839:A2 *892:A 0
115 *839:A2 *417:55 0.000103009
116 *839:A2 *569:16 0
117 *844:A2 *844:A1 2.75346e-06
118 *844:A2 *989:A 1.39292e-05
119 *844:A2 *418:22 0
120 *844:A2 *456:27 1.21774e-06
121 *844:A2 *456:38 2.43548e-06
122 *844:A2 *558:50 0
123 *849:A2 *849:A1 1.25215e-05
124 *849:A2 *456:12 6.46697e-06
125 *860:A2 *860:A3 2.39679e-06
126 *860:A2 *120:18 3.09143e-06
127 *864:A2 *682:A1 7.16188e-07
128 *864:A2 *855:A1 2.39679e-06
129 *864:A2 *855:A3 4.97191e-06
130 *864:A2 *130:24 6.38328e-07
131 *864:A2 *461:15 2.39679e-06
132 *864:A2 *461:26 3.50515e-05
133 *869:A2 *597:A4 6.74188e-07
134 *869:A2 *869:A1 3.22834e-06
135 *869:A2 *869:A3 8.9693e-06
136 *869:A2 *870:A 2.6981e-05
137 *869:A2 *130:24 2.43548e-06
138 *869:A2 *516:43 1.91105e-06
139 *4:6 *614:B1 0
140 *4:16 *852:B2 0
141 *4:16 *852:C2 0
142 *4:16 *897:B 9.5669e-05
143 *4:16 *1058:A 7.15956e-05
144 *4:16 *381:6 3.28235e-05
145 *4:16 *515:80 2.42461e-05
146 *4:16 *515:93 1.08381e-05
147 *4:22 *583:A1 5.387e-06
148 *4:22 *860:A1 5.20238e-07
149 *4:22 *1033:A 0
150 *4:22 *120:18 1.01818e-05
151 *4:22 *518:10 2.25658e-05
152 *4:35 *671:A1 0
153 *4:35 *860:A1 1.72405e-05
154 *4:35 *860:A3 1.78117e-05
155 *4:35 *1055:A 4.7875e-06
156 *4:35 *518:10 0
157 *4:35 *557:12 1.3143e-06
158 *4:47 *674:B 4.94891e-06
159 *4:47 *675:A 1.28122e-06
160 *4:47 *675:B 3.57813e-05
161 *4:47 *681:B2 7.72537e-06
162 *4:47 *682:A2 4.78177e-05
163 *4:47 *683:A2 2.73686e-05
164 *4:47 *863:A1 1.59383e-05
165 *4:47 *1055:A 1.86984e-05
166 *4:47 *1080:A 3.81974e-05
167 *4:47 *435:10 1.29033e-06
168 *4:47 *507:8 1.1519e-06
169 *4:47 *515:28 0
170 *4:47 *515:54 0
171 *4:47 *557:12 3.63228e-05
172 *4:47 *557:14 5.52959e-06
173 *4:103 *583:A1 1.15685e-06
174 *4:103 *352:52 1.2752e-06
175 *4:103 *521:20 1.15868e-05
176 *4:103 *521:24 0.000170971
177 *4:103 *532:35 0.000101709
178 *4:120 *651:A1 2.16072e-07
179 *4:120 *653:A 4.55949e-09
180 *4:120 *687:A1 1.21774e-06
181 *4:120 *689:B1 9.62051e-07
182 *4:120 *1114:A 3.09143e-06
183 *4:120 *1119:A 0
184 *4:120 *299:6 0
185 *4:120 *299:15 0
186 *4:120 *455:39 0
187 *4:120 *456:12 1.02701e-06
188 *4:120 *521:20 6.76846e-05
189 *4:120 *532:35 2.3905e-05
190 *4:120 *557:12 0
191 *4:120 *566:16 1.39839e-06
192 *4:120 *571:8 0
193 *4:142 *687:A1 5.80265e-05
194 *4:142 *689:A 7.19036e-06
195 *4:142 *689:B2 4.77786e-06
196 *4:142 *712:B1 5.62108e-06
197 *4:142 *756:A 1.26998e-05
198 *4:142 *773:A 5.30022e-05
199 *4:142 *825:A1 2.11815e-06
200 *4:142 *826:A1 1.74971e-05
201 *4:142 *874:B1 0
202 *4:142 *916:D 6.56185e-06
203 *4:142 *121:18 0
204 *4:142 *216:85 2.86801e-05
205 *4:142 *359:12 3.61723e-05
206 *4:142 *451:18 1.6558e-05
207 *4:142 *520:61 1.2051e-05
208 *4:142 *566:16 3.51992e-06
209 *4:154 *774:A1 7.09711e-06
210 *4:154 *825:A1 2.16072e-07
211 *4:154 *826:A1 1.67775e-05
212 *4:154 *197:16 3.06073e-06
213 *4:154 *367:59 4.7181e-06
214 *4:154 *409:18 0.000422605
215 *4:154 *451:18 0.000130374
216 *4:194 *602:A1 7.96393e-05
217 *4:194 *605:A2 2.31202e-05
218 *4:194 *609:A 8.25592e-06
219 *4:194 *614:A 1.14937e-05
220 *4:194 *614:B1 2.06471e-05
221 *4:194 *614:B2 1.53766e-05
222 *4:194 *897:B 3.67598e-05
223 *4:194 *417:36 9.98041e-06
224 *4:207 *602:A1 2.4263e-05
225 *4:207 *417:36 0.000143408
226 *4:207 *418:22 1.14751e-05
227 *4:220 *892:S 2.41337e-05
228 *4:220 *417:36 9.01126e-05
229 *4:220 *417:49 0.000441923
230 *4:220 *418:22 7.98198e-06
231 *4:220 *456:38 1.3299e-07
232 *4:220 *504:78 3.34489e-05
233 *4:220 *558:50 0.000179047
234 *4:226 *634:B2 4.26724e-05
235 *4:226 *638:A 0
236 *4:226 *834:A1 6.11905e-05
237 *4:226 *840:B2 1.51108e-05
238 *4:226 *842:C1 2.29041e-05
239 *4:226 *82:8 0
240 *4:226 *417:55 5.56848e-05
241 *4:226 *539:31 0
242 *4:230 *588:A3 0
243 *4:230 *634:B2 0
244 *4:230 *637:A 2.56443e-05
245 *4:230 *637:B2 0
246 *4:230 *85:24 0
247 *4:230 *91:18 5.44908e-06
248 *4:230 *463:64 2.75346e-06
249 *4:230 *463:79 5.50692e-06
250 *4:230 *504:8 1.74882e-05
251 *4:230 *539:31 1.22401e-05
252 *4:242 resp_msg[1] 0
253 *4:242 *463:64 1.8475e-05
254 *4:242 *504:8 3.09143e-06
255 *4:242 *558:33 0.000274447
256 *4:242 *565:63 2.48069e-05
257 *4:242 *565:65 6.88219e-06
258 *4:246 *777:B1 1.18773e-05
259 *4:246 *63:24 1.20049e-05
260 *4:246 *184:14 1.12532e-05
261 *4:246 *239:12 7.66675e-07
262 *4:246 *239:23 1.01993e-05
263 *4:246 *452:22 3.02372e-05
264 *4:246 *526:25 5.45514e-06
265 *4:248 *239:12 1.83788e-06
266 *4:248 *526:25 1.58752e-05
267 *907:D *4:194 3.90891e-05
*RES
1 *907:QN *4:6 5.92857 