*SPEF "ieee 1481-1999"
*DESIGN "gcd"
*DATE "22:28:49 Saturday February 14, 2026"
*VENDOR "The OpenROAD Project"
*PROGRAM "OpenROAD"
*VERSION "26Q1-951-g6975124cf2"
*DESIGN_FLOW "NAME_SCOPE LOCAL" "PIN_CAP NONE"
*DIVIDER /
*DELIMITER :
*BUS_DELIMITER []
*T_UNIT 1 NS
*C_UNIT 1 PF
*R_UNIT 1 OHM
*L_UNIT 1 HENRY

*NAME_MAP
*1 _000_
*2 _001_
*3 _002_
*4 _003_
*5 _004_
*6 _005_
*7 _006_
*8 _007_
*9 _008_
*10 _009_
*11 _010_
*12 _011_
*13 _012_
*14 _013_
*15 _014_
*16 _015_
*17 _016_
*18 _017_
*19 _018_
*20 _019_
*21 _020_
*22 _021_
*23 _022_
*24 _023_
*25 _024_
*26 _025_
*27 _026_
*28 _027_
*29 _028_
*30 _029_
*31 _030_
*32 _031_
*33 _032_
*34 _033_
*35 _034_
*36 _035_
*37 _036_
*38 req_msg[24]
*39 req_msg[23]
*40 req_msg[22]
*41 _040_
*42 _041_
*43 _042_
*44 _043_
*45 _044_
*46 _045_
*47 _046_
*48 _047_
*49 _048_
*50 _049_
*51 _050_
*52 _051_
*53 _052_
*54 _053_
*55 _054_
*56 _055_
*57 _056_
*58 _057_
*59 _058_
*60 _059_
*61 _060_
*62 _061_
*63 _062_
*64 _063_
*65 req_msg[21]
*66 _065_
*67 _066_
*68 req_msg[20]
*69 _068_
*70 _069_
*71 _070_
*72 _071_
*73 req_msg[1]
*74 _073_
*75 _074_
*76 _075_
*77 _076_
*78 _077_
*79 _078_
*80 _079_
*81 _080_
*82 _081_
*83 _082_
*84 _083_
*85 _084_
*86 _085_
*87 _086_
*88 _087_
*89 _088_
*90 _089_
*91 _090_
*92 _091_
*93 _092_
*94 _093_
*95 _094_
*96 _095_
*97 _096_
*98 _097_
*99 _098_
*100 _099_
*101 _100_
*102 _101_
*103 _102_
*104 _103_
*105 _104_
*106 _105_
*107 _106_
*108 req_msg[19]
*109 _108_
*110 _109_
*111 _110_
*112 _111_
*113 _112_
*114 _113_
*115 _114_
*116 _115_
*117 _116_
*118 _117_
*119 _118_
*120 _119_
*121 _120_
*122 _121_
*123 _122_
*124 _123_
*125 _124_
*126 _125_
*127 _126_
*128 _127_
*129 _128_
*130 _129_
*131 _130_
*132 _131_
*133 _132_
*134 _133_
*135 _134_
*136 _135_
*137 _136_
*138 _137_
*139 _138_
*140 _139_
*141 _140_
*142 _141_
*143 _142_
*144 _143_
*145 _144_
*146 _145_
*147 _146_
*148 _147_
*149 _148_
*150 _149_
*151 _150_
*152 _151_
*153 _152_
*154 _153_
*155 _154_
*156 _155_
*157 _156_
*158 _157_
*159 _158_
*160 _159_
*161 _160_
*162 _161_
*163 _162_
*164 _163_
*165 _164_
*166 _165_
*167 _166_
*168 _167_
*169 _168_
*170 _169_
*171 _170_
*172 _171_
*173 _172_
*174 _173_
*175 _174_
*176 _175_
*177 _176_
*178 _177_
*179 _178_
*180 _179_
*181 _180_
*182 _181_
*183 _182_
*184 _183_
*185 _184_
*186 _185_
*187 _186_
*188 _187_
*189 _188_
*190 _189_
*191 _190_
*192 _191_
*193 _192_
*194 _193_
*195 _194_
*196 _195_
*197 _196_
*198 _197_
*199 _198_
*200 _199_
*201 _200_
*202 _201_
*203 _202_
*204 _203_
*205 _204_
*206 _205_
*207 _206_
*208 _207_
*209 _208_
*210 _209_
*211 _210_
*212 _211_
*213 _212_
*214 _213_
*215 _214_
*216 _215_
*217 _216_
*218 _217_
*219 _218_
*220 _219_
*221 _220_
*222 _221_
*223 _222_
*224 _223_
*225 _224_
*226 _225_
*227 _226_
*228 _227_
*229 _228_
*230 _229_
*231 _230_
*232 _231_
*233 _232_
*234 _233_
*235 _234_
*236 _235_
*237 _236_
*238 _237_
*239 _238_
*240 _239_
*241 _240_
*242 _241_
*243 _242_
*244 _243_
*245 _244_
*246 _245_
*247 _246_
*248 _247_
*249 _248_
*250 _249_
*251 _250_
*252 _251_
*253 _252_
*254 _253_
*255 _254_
*256 _255_
*257 _256_
*258 _257_
*259 _258_
*260 _259_
*261 _260_
*262 _261_
*263 _262_
*264 _263_
*265 _264_
*266 _265_
*267 _266_
*268 _267_
*269 _268_
*270 _269_
*271 _270_
*272 _271_
*273 _272_
*274 _273_
*275 _274_
*276 _275_
*277 _276_
*278 _277_
*279 _278_
*280 _279_
*281 _280_
*282 _281_
*283 _282_
*284 _283_
*285 _284_
*286 _285_
*287 _286_
*288 _287_
*289 _288_
*290 _289_
*291 _290_
*292 _291_
*293 _292_
*294 _293_
*295 _294_
*296 _295_
*297 _296_
*298 _297_
*299 _298_
*300 _299_
*301 _300_
*302 _301_
*303 _302_
*304 _303_
*305 req_msg[18]
*306 _305_
*307 _306_
*308 req_msg[17]
*309 _308_
*310 _309_
*311 req_msg[16]
*312 _311_
*313 _312_
*314 req_msg[15]
*315 _314_
*316 req_msg[14]
*317 req_msg[13]
*318 _317_
*319 _318_
*320 _319_
*321 _320_
*322 _321_
*323 _322_
*324 _323_
*325 _324_
*326 _325_
*327 _326_
*328 _327_
*329 _328_
*330 _329_
*331 _330_
*332 _331_
*333 _332_
*334 _333_
*335 _334_
*336 _335_
*337 _336_
*338 _337_
*339 _338_
*340 _339_
*341 _340_
*342 _341_
*343 _342_
*344 _343_
*345 _344_
*346 _345_
*347 _346_
*348 _347_
*349 _348_
*350 _349_
*351 _350_
*352 _351_
*353 _352_
*354 _353_
*355 _354_
*356 _355_
*357 _356_
*358 _357_
*359 _358_
*360 _359_
*361 _360_
*362 _361_
*363 _362_
*364 _363_
*365 _364_
*366 _365_
*367 _366_
*368 _367_
*369 _368_
*370 _369_
*371 _370_
*372 _371_
*373 _372_
*374 _373_
*375 _374_
*376 _375_
*377 _376_
*378 _377_
*379 _378_
*380 _379_
*381 _380_
*382 _381_
*383 _382_
*384 _383_
*385 _384_
*386 _385_
*387 _386_
*388 _387_
*389 _388_
*390 _389_
*391 _390_
*392 _391_
*393 _392_
*394 _393_
*395 _394_
*396 _395_
*397 _396_
*398 _397_
*399 _398_
*400 _399_
*401 _400_
*402 req_msg[12]
*403 _402_
*404 _403_
*405 _404_
*406 req_msg[11]
*407 _406_
*408 _407_
*409 _408_
*410 _409_
*411 req_msg[10]
*412 _411_
*413 _412_
*414 _413_
*415 _414_
*416 _415_
*417 req_msg[0]
*418 _417_
*419 _418_
*420 _419_
*421 _420_
*422 _421_
*423 _422_
*424 _423_
*425 _424_
*426 _425_
*427 _426_
*428 _427_
*429 _428_
*430 _429_
*431 _430_
*432 _431_
*433 _432_
*434 _433_
*435 _434_
*436 _435_
*437 _436_
*438 _437_
*439 _438_
*440 _439_
*441 _440_
*442 _441_
*443 _442_
*444 _443_
*445 _444_
*446 _445_
*447 _446_
*448 _447_
*449 _448_
*450 _449_
*451 _450_
*452 _451_
*453 _452_
*454 _453_
*455 _454_
*456 _455_
*457 _456_
*458 _457_
*459 _458_
*460 _459_
*461 _460_
*462 _461_
*463 _462_
*464 _463_
*465 _464_
*466 _465_
*467 _466_
*468 _467_
*469 _468_
*470 _469_
*471 _470_
*472 _471_
*473 _472_
*474 _473_
*475 _474_
*476 _475_
*477 _476_
*478 _477_
*479 _478_
*480 _479_
*481 _480_
*482 _481_
*483 _482_
*484 _483_
*485 clk
*486 ctrl\.state\.out\[1\]
*487 ctrl\.state\.out\[2\]
*488 dpath\.a_lt_b\$in0\[0\]
*489 dpath\.a_lt_b\$in0\[10\]
*490 dpath\.a_lt_b\$in0\[11\]
*491 dpath\.a_lt_b\$in0\[12\]
*492 dpath\.a_lt_b\$in0\[13\]
*493 dpath\.a_lt_b\$in0\[14\]
*494 dpath\.a_lt_b\$in0\[15\]
*495 dpath\.a_lt_b\$in0\[1\]
*496 dpath\.a_lt_b\$in0\[2\]
*497 dpath\.a_lt_b\$in0\[3\]
*498 dpath\.a_lt_b\$in0\[4\]
*499 dpath\.a_lt_b\$in0\[5\]
*500 dpath\.a_lt_b\$in0\[6\]
*501 dpath\.a_lt_b\$in0\[7\]
*502 dpath\.a_lt_b\$in0\[8\]
*503 dpath\.a_lt_b\$in0\[9\]
*504 dpath\.a_lt_b\$in1\[0\]
*505 dpath\.a_lt_b\$in1\[10\]
*506 dpath\.a_lt_b\$in1\[11\]
*507 dpath\.a_lt_b\$in1\[12\]
*508 dpath\.a_lt_b\$in1\[13\]
*509 dpath\.a_lt_b\$in1\[14\]
*510 dpath\.a_lt_b\$in1\[15\]
*511 dpath\.a_lt_b\$in1\[1\]
*512 dpath\.a_lt_b\$in1\[2\]
*513 dpath\.a_lt_b\$in1\[3\]
*514 dpath\.a_lt_b\$in1\[4\]
*515 dpath\.a_lt_b\$in1\[5\]
*516 dpath\.a_lt_b\$in1\[6\]
*517 dpath\.a_lt_b\$in1\[7\]
*518 dpath\.a_lt_b\$in1\[8\]
*519 dpath\.a_lt_b\$in1\[9\]
*520 net1
*521 net2
*522 net3
*523 net4
*524 net5
*525 net6
*526 net7
*527 net8
*528 net9
*529 net10
*530 net11
*531 net12
*532 net13
*533 net14
*534 net15
*535 net16
*536 net17
*537 net18
*538 net19
*539 net20
*540 net21
*541 net22
*542 net23
*543 net24
*544 net25
*545 net26
*546 net27
*547 net28
*548 net29
*549 net30
*550 net31
*551 net32
*552 net36
*553 net33
*554 net34
*555 net37
*556 net38
*557 net39
*558 net40
*559 net41
*560 net42
*561 net43
*562 net44
*563 net45
*564 net46
*565 net47
*566 net48
*567 net49
*568 net50
*569 net51
*570 net52
*571 net35
*572 net53
*575 req_msg[25]
*576 req_msg[26]
*577 req_msg[27]
*578 req_msg[28]
*579 req_msg[29]
*580 req_msg[2]
*581 req_msg[30]
*582 req_msg[31]
*583 req_msg[3]
*584 req_msg[4]
*585 req_msg[5]
*586 req_msg[6]
*587 req_msg[7]
*588 req_msg[8]
*589 req_msg[9]
*590 req_val
*591 reset
*592 resp_rdy
*593 req_rdy
*594 resp_msg[0]
*595 resp_msg[10]
*596 resp_msg[11]
*597 resp_msg[12]
*598 resp_msg[13]
*599 resp_msg[14]
*600 resp_msg[15]
*601 resp_msg[1]
*602 resp_msg[2]
*603 resp_msg[3]
*604 resp_msg[4]
*605 resp_msg[5]
*606 resp_msg[6]
*607 resp_msg[7]
*608 resp_msg[8]
*609 resp_msg[9]
*610 resp_val
*611 net69
*612 net70
*613 net71
*614 net72
*615 net73
*616 net74
*617 net75
*618 net77
*619 net78
*620 net79
*621 net80
*622 net81
*623 net83
*624 clknet_0_clk
*625 net68
*626 net76
*627 net82
*628 net84
*629 net85
*630 clknet_2_0__leaf_clk
*631 clknet_2_1__leaf_clk
*632 clknet_2_2__leaf_clk
*633 clknet_2_3__leaf_clk
*634 net86
*635 net87
*636 net88
*637 net89
*638 net90
*639 net91
*640 net92
*641 net93
*642 net94
*643 net95
*644 net96
*645 net97
*646 net98
*647 net99
*648 net100
*649 net101
*650 net102
*651 net103
*652 net104
*653 net105
*654 net106
*655 net135
*656 net137
*657 net138
*658 net139
*659 net140
*660 net141
*661 net142
*662 net143
*663 net144
*664 net145
*665 net146
*666 net147
*667 net148
*668 net149
*669 net150
*670 net155
*671 net163
*672 net165
*673 net166
*674 net167
*675 net179
*676 net180
*677 net210
*678 net211
*679 net212
*680 _484_
*681 input17
*682 input16
*683 input15
*684 _488_
*685 _489_
*686 _490_
*687 _491_
*688 _492_
*689 _493_
*690 _494_
*691 _495_
*692 _496_
*693 _497_
*694 _498_
*695 _499_
*696 _500_
*697 _501_
*698 _502_
*699 _503_
*700 _504_
*701 _505_
*702 _506_
*703 _507_
*704 _508_
*705 _509_
*706 _510_
*707 _511_
*708 input14
*709 _513_
*710 _514_
*711 _515_
*712 input13
*713 _517_
*714 _518_
*715 _519_
*716 _520_
*717 _521_
*718 _522_
*719 _523_
*720 _524_
*721 input12
*722 _526_
*723 _527_
*724 _528_
*725 _529_
*726 _530_
*727 _531_
*728 _532_
*729 _533_
*730 _534_
*731 _535_
*732 _536_
*733 _537_
*734 _538_
*735 _539_
*736 _540_
*737 _541_
*738 _542_
*739 _543_
*740 _544_
*741 _545_
*742 _546_
*743 _547_
*744 _548_
*745 _549_
*746 _550_
*747 _551_
*748 _552_
*749 _553_
*750 _554_
*751 _555_
*752 _556_
*753 _557_
*754 _558_
*755 _559_
*756 _560_
*757 _561_
*758 _562_
*759 _563_
*760 input11
*761 _565_
*762 _566_
*763 _567_
*764 _568_
*765 _569_
*766 _570_
*767 _571_
*768 _572_
*769 _573_
*770 _574_
*771 _575_
*772 _576_
*773 _577_
*774 _578_
*775 _579_
*776 _580_
*777 _581_
*778 _582_
*779 _583_
*780 _584_
*781 _585_
*782 _586_
*783 _587_
*784 _588_
*785 _589_
*786 _590_
*787 _591_
*788 _592_
*789 _593_
*790 _594_
*791 _595_
*792 _596_
*793 _597_
*794 _598_
*795 _599_
*796 _600_
*797 _601_
*798 _602_
*799 _603_
*800 _604_
*801 _605_
*802 _606_
*803 _607_
*804 _608_
*805 _609_
*806 _610_
*807 _611_
*808 _612_
*809 _613_
*810 _614_
*811 _615_
*812 _616_
*813 _617_
*814 _618_
*815 _619_
*816 _620_
*817 _621_
*818 _622_
*819 _623_
*820 _624_
*821 _625_
*822 _626_
*823 _627_
*824 _628_
*825 _629_
*826 _630_
*827 _631_
*828 _632_
*829 _633_
*830 _634_
*831 _635_
*832 _636_
*833 _637_
*834 _638_
*835 _639_
*836 _640_
*837 _641_
*838 _642_
*839 _643_
*840 _644_
*841 _645_
*842 _646_
*843 _647_
*844 _648_
*845 _649_
*846 _650_
*847 _651_
*848 _652_
*849 _653_
*850 _654_
*851 _655_
*852 _656_
*853 _657_
*854 _658_
*855 _659_
*856 _660_
*857 _661_
*858 _662_
*859 _663_
*860 _664_
*861 _665_
*862 _666_
*863 _667_
*864 _668_
*865 _669_
*866 _670_
*867 _671_
*868 _672_
*869 _673_
*870 _674_
*871 _675_
*872 _676_
*873 _677_
*874 _678_
*875 _679_
*876 _680_
*877 _681_
*878 _682_
*879 _683_
*880 _684_
*881 _685_
*882 _686_
*883 _687_
*884 _688_
*885 _689_
*886 _690_
*887 _691_
*888 _692_
*889 _693_
*890 _694_
*891 _695_
*892 _696_
*893 _697_
*894 _698_
*895 _699_
*896 _700_
*897 _701_
*898 _702_
*899 _703_
*900 _704_
*901 _705_
*902 _706_
*903 _707_
*904 _708_
*905 _709_
*906 _710_
*907 _711_
*908 _712_
*909 _713_
*910 _714_
*911 _715_
*912 _716_
*913 _717_
*914 _718_
*915 _719_
*916 _720_
*917 _721_
*918 _722_
*919 _723_
*920 _724_
*921 _725_
*922 _726_
*923 _727_
*924 _728_
*925 _729_
*926 _730_
*927 _731_
*928 _732_
*929 _733_
*930 _734_
*931 _735_
*932 _736_
*933 _737_
*934 _738_
*935 _739_
*936 _740_
*937 _741_
*938 _742_
*939 _743_
*940 _744_
*941 _745_
*942 _746_
*943 _747_
*944 _748_
*945 _749_
*946 _750_
*947 _751_
*948 _752_
*949 _753_
*950 _754_
*951 _755_
*952 _756_
*953 _757_
*954 _758_
*955 _759_
*956 _760_
*957 _761_
*958 _762_
*959 _763_
*960 _764_
*961 _765_
*962 _766_
*963 _767_
*964 _768_
*965 _769_
*966 _770_
*967 _771_
*968 input10
*969 _773_
*970 _774_
*971 input9
*972 _776_
*973 _777_
*974 input8
*975 _779_
*976 _780_
*977 input7
*978 _782_
*979 input6
*980 input5
*981 _785_
*982 _786_
*983 _787_
*984 _788_
*985 _789_
*986 _790_
*987 _791_
*988 _792_
*989 _793_
*990 _794_
*991 _795_
*992 _796_
*993 _797_
*994 _798_
*995 _799_
*996 _800_
*997 _801_
*998 _802_
*999 _803_
*1000 _804_
*1001 _805_
*1002 _806_
*1003 _807_
*1004 _808_
*1005 _809_
*1006 _810_
*1007 _811_
*1008 _812_
*1009 _813_
*1010 _814_
*1011 _815_
*1012 _816_
*1013 _817_
*1014 _818_
*1015 _819_
*1016 _820_
*1017 _821_
*1018 _822_
*1019 _823_
*1020 _824_
*1021 _825_
*1022 _826_
*1023 _827_
*1024 _828_
*1025 _829_
*1026 _830_
*1027 _831_
*1028 _832_
*1029 _833_
*1030 _834_
*1031 _835_
*1032 _836_
*1033 _837_
*1034 _838_
*1035 _839_
*1036 _840_
*1037 _841_
*1038 _842_
*1039 _843_
*1040 _844_
*1041 _845_
*1042 _846_
*1043 _847_
*1044 _848_
*1045 _849_
*1046 _850_
*1047 _851_
*1048 _852_
*1049 _853_
*1050 _854_
*1051 _855_
*1052 _856_
*1053 _857_
*1054 _858_
*1055 _859_
*1056 _860_
*1057 _861_
*1058 _862_
*1059 _863_
*1060 _864_
*1061 _865_
*1062 _866_
*1063 _867_
*1064 _868_
*1065 _869_
*1066 _870_
*1067 _871_
*1068 _872_
*1069 _873_
*1070 _874_
*1071 _875_
*1072 _876_
*1073 _877_
*1074 _878_
*1075 _879_
*1076 _880_
*1077 _881_
*1078 _882_
*1079 _883_
*1080 _884_
*1081 input4
*1082 _886_
*1083 _887_
*1084 _888_
*1085 input3
*1086 _890_
*1087 _891_
*1088 _892_
*1089 _893_
*1090 _894_
*1091 _895_
*1092 input2
*1093 _897_
*1094 _898_
*1095 _899_
*1096 _900_
*1097 _901_
*1098 _902_
*1099 _903_
*1100 input1
*1101 _905_
*1102 _906_
*1103 _907_
*1104 _908_
*1105 _909_
*1106 _910_
*1107 _911_
*1108 _912_
*1109 _913_
*1110 _914_
*1111 _915_
*1112 _916_
*1113 _917_
*1114 _918_
*1115 _919_
*1116 _920_
*1117 _921_
*1118 _922_
*1119 _923_
*1120 _924_
*1121 _925_
*1122 _926_
*1123 _927_
*1124 _928_
*1125 _929_
*1126 _930_
*1127 _931_
*1128 _932_
*1129 _933_
*1130 _934_
*1131 _935_
*1132 _936_
*1133 _937_
*1134 _938_
*1135 _939_
*1136 _940_
*1137 _941_
*1138 _942_
*1139 _943_
*1140 _944_
*1141 _945_
*1142 _946_
*1143 _947_
*1144 _948_
*1145 _949_
*1146 ctrl\.state\.out\[0\]\$_DFF_P_
*1147 ctrl\.state\.out\[1\]\$_DFF_P_
*1148 ctrl\.state\.out\[2\]\$_DFF_P_
*1149 dpath\.a_reg\.out\[0\]\$_DFFE_PP_
*1150 dpath\.a_reg\.out\[10\]\$_DFFE_PP_
*1151 dpath\.a_reg\.out\[11\]\$_DFFE_PP_
*1152 dpath\.a_reg\.out\[12\]\$_DFFE_PP_
*1153 dpath\.a_reg\.out\[13\]\$_DFFE_PP_
*1154 dpath\.a_reg\.out\[14\]\$_DFFE_PP_
*1155 dpath\.a_reg\.out\[15\]\$_DFFE_PP_
*1156 dpath\.a_reg\.out\[1\]\$_DFFE_PP_
*1157 dpath\.a_reg\.out\[2\]\$_DFFE_PP_
*1158 dpath\.a_reg\.out\[3\]\$_DFFE_PP_
*1159 dpath\.a_reg\.out\[4\]\$_DFFE_PP_
*1160 dpath\.a_reg\.out\[5\]\$_DFFE_PP_
*1161 dpath\.a_reg\.out\[6\]\$_DFFE_PP_
*1162 dpath\.a_reg\.out\[7\]\$_DFFE_PP_
*1163 dpath\.a_reg\.out\[8\]\$_DFFE_PP_
*1164 dpath\.a_reg\.out\[9\]\$_DFFE_PP_
*1165 dpath\.b_reg\.out\[0\]\$_DFFE_PP_
*1166 dpath\.b_reg\.out\[10\]\$_DFFE_PP_
*1167 dpath\.b_reg\.out\[11\]\$_DFFE_PP_
*1168 dpath\.b_reg\.out\[12\]\$_DFFE_PP_
*1169 dpath\.b_reg\.out\[13\]\$_DFFE_PP_
*1170 dpath\.b_reg\.out\[14\]\$_DFFE_PP_
*1171 dpath\.b_reg\.out\[15\]\$_DFFE_PP_
*1172 dpath\.b_reg\.out\[1\]\$_DFFE_PP_
*1173 dpath\.b_reg\.out\[2\]\$_DFFE_PP_
*1174 dpath\.b_reg\.out\[3\]\$_DFFE_PP_
*1175 dpath\.b_reg\.out\[4\]\$_DFFE_PP_
*1176 dpath\.b_reg\.out\[5\]\$_DFFE_PP_
*1177 dpath\.b_reg\.out\[6\]\$_DFFE_PP_
*1178 dpath\.b_reg\.out\[7\]\$_DFFE_PP_
*1179 dpath\.b_reg\.out\[8\]\$_DFFE_PP_
*1180 dpath\.b_reg\.out\[9\]\$_DFFE_PP_
*1181 PHY_EDGE_ROW_0_Right_0
*1182 PHY_EDGE_ROW_1_Right_1
*1183 PHY_EDGE_ROW_2_Right_2
*1184 PHY_EDGE_ROW_3_Right_3
*1185 PHY_EDGE_ROW_4_Right_4
*1186 PHY_EDGE_ROW_5_Right_5
*1187 PHY_EDGE_ROW_6_Right_6
*1188 PHY_EDGE_ROW_7_Right_7
*1189 PHY_EDGE_ROW_8_Right_8
*1190 PHY_EDGE_ROW_9_Right_9
*1191 PHY_EDGE_ROW_10_Right_10
*1192 PHY_EDGE_ROW_11_Right_11
*1193 PHY_EDGE_ROW_12_Right_12
*1194 PHY_EDGE_ROW_13_Right_13
*1195 PHY_EDGE_ROW_14_Right_14
*1196 PHY_EDGE_ROW_15_Right_15
*1197 PHY_EDGE_ROW_16_Right_16
*1198 PHY_EDGE_ROW_17_Right_17
*1199 PHY_EDGE_ROW_18_Right_18
*1200 PHY_EDGE_ROW_19_Right_19
*1201 PHY_EDGE_ROW_20_Right_20
*1202 PHY_EDGE_ROW_21_Right_21
*1203 PHY_EDGE_ROW_22_Right_22
*1204 PHY_EDGE_ROW_23_Right_23
*1205 PHY_EDGE_ROW_0_Left_24
*1206 PHY_EDGE_ROW_1_Left_25
*1207 PHY_EDGE_ROW_2_Left_26
*1208 PHY_EDGE_ROW_3_Left_27
*1209 PHY_EDGE_ROW_4_Left_28
*1210 PHY_EDGE_ROW_5_Left_29
*1211 PHY_EDGE_ROW_6_Left_30
*1212 PHY_EDGE_ROW_7_Left_31
*1213 PHY_EDGE_ROW_8_Left_32
*1214 PHY_EDGE_ROW_9_Left_33
*1215 PHY_EDGE_ROW_10_Left_34
*1216 PHY_EDGE_ROW_11_Left_35
*1217 PHY_EDGE_ROW_12_Left_36
*1218 PHY_EDGE_ROW_13_Left_37
*1219 PHY_EDGE_ROW_14_Left_38
*1220 PHY_EDGE_ROW_15_Left_39
*1221 PHY_EDGE_ROW_16_Left_40
*1222 PHY_EDGE_ROW_17_Left_41
*1223 PHY_EDGE_ROW_18_Left_42
*1224 PHY_EDGE_ROW_19_Left_43
*1225 PHY_EDGE_ROW_20_Left_44
*1226 PHY_EDGE_ROW_21_Left_45
*1227 PHY_EDGE_ROW_22_Left_46
*1228 PHY_EDGE_ROW_23_Left_47
*1229 input18
*1230 input19
*1231 input20
*1232 input21
*1233 input22
*1234 input23
*1235 input24
*1236 input25
*1237 input26
*1238 input27
*1239 input28
*1240 input29
*1241 input30
*1242 input31
*1243 input32
*1244 input33
*1245 input34
*1246 input35
*1247 output36
*1248 output37
*1249 output38
*1250 output39
*1251 output40
*1252 output41
*1253 output42
*1254 output43
*1255 output44
*1256 output45
*1257 output46
*1258 output47
*1259 output48
*1260 output49
*1261 output50
*1262 output51
*1263 output52
*1264 output53
*1265 place69
*1266 place70
*1267 place71
*1268 place72
*1269 place73
*1270 place74
*1271 place75
*1272 place77
*1273 place78
*1274 place79
*1275 place80
*1276 place81
*1277 place83
*1278 clkbuf_0_clk
*1279 place68
*1280 place76
*1281 place82
*1282 place84
*1283 place85
*1284 clkbuf_2_0__f_clk
*1285 clkbuf_2_1__f_clk
*1286 clkbuf_2_2__f_clk
*1287 clkbuf_2_3__f_clk
*1288 clkload0
*1289 clkload1
*1290 clkload2
*1291 rebuffer86
*1292 rebuffer87
*1293 rebuffer88
*1294 rebuffer89
*1295 rebuffer90
*1296 rebuffer91
*1297 rebuffer92
*1298 rebuffer93
*1299 rebuffer94
*1300 rebuffer95
*1301 rebuffer96
*1302 rebuffer97
*1303 rebuffer98
*1304 rebuffer99
*1305 rebuffer100
*1306 rebuffer101
*1307 rebuffer102
*1308 rebuffer103
*1309 rebuffer104
*1310 rebuffer105
*1311 rebuffer106
*1312 rebuffer135
*1313 rebuffer137
*1314 rebuffer138
*1315 rebuffer139
*1316 rebuffer140
*1317 rebuffer141
*1318 rebuffer142
*1319 rebuffer143
*1320 rebuffer144
*1321 rebuffer145
*1322 rebuffer146
*1323 rebuffer147
*1324 rebuffer148
*1325 rebuffer149
*1326 rebuffer150
*1327 rebuffer155
*1328 rebuffer163
*1329 rebuffer165
*1330 rebuffer166
*1331 clone167
*1332 rebuffer179
*1333 rebuffer180
*1334 clone210
*1335 clone211
*1336 rebuffer212
*1337 FILLER_0_1
*1338 FILLER_0_17
*1339 FILLER_0_35
*1340 FILLER_0_43
*1341 FILLER_0_54
*1342 FILLER_0_61
*1343 FILLER_0_68
*1344 FILLER_0_72
*1345 FILLER_0_74
*1346 FILLER_0_78
*1347 FILLER_0_91
*1348 FILLER_0_95
*1349 FILLER_0_99
*1350 FILLER_0_115
*1351 FILLER_0_122
*1352 FILLER_0_140
*1353 FILLER_0_154
*1354 FILLER_0_170
*1355 FILLER_0_174
*1356 FILLER_0_176
*1357 FILLER_1_1
*1358 FILLER_1_17
*1359 FILLER_1_25
*1360 FILLER_1_52
*1361 FILLER_1_102
*1362 FILLER_1_104
*1363 FILLER_1_122
*1364 FILLER_1_145
*1365 FILLER_1_147
*1366 FILLER_1_151
*1367 FILLER_1_167
*1368 FILLER_1_175
*1369 FILLER_2_1
*1370 FILLER_2_9
*1371 FILLER_2_13
*1372 FILLER_2_25
*1373 FILLER_2_35
*1374 FILLER_2_47
*1375 FILLER_2_74
*1376 FILLER_2_80
*1377 FILLER_2_99
*1378 FILLER_2_106
*1379 FILLER_2_116
*1380 FILLER_2_129
*1381 FILLER_2_141
*1382 FILLER_2_149
*1383 FILLER_2_165
*1384 FILLER_2_173
*1385 FILLER_3_1
*1386 FILLER_3_5
*1387 FILLER_3_13
*1388 FILLER_3_32
*1389 FILLER_3_76
*1390 FILLER_3_80
*1391 FILLER_3_91
*1392 FILLER_3_99
*1393 FILLER_3_117
*1394 FILLER_3_125
*1395 FILLER_3_132
*1396 FILLER_3_160
*1397 FILLER_3_176
*1398 FILLER_4_1
*1399 FILLER_4_5
*1400 FILLER_4_21
*1401 FILLER_4_29
*1402 FILLER_4_35
*1403 FILLER_4_48
*1404 FILLER_4_50
*1405 FILLER_4_90
*1406 FILLER_4_133
*1407 FILLER_4_153
*1408 FILLER_4_158
*1409 FILLER_4_168
*1410 FILLER_4_172
*1411 FILLER_4_176
*1412 FILLER_5_1
*1413 FILLER_5_15
*1414 FILLER_5_19
*1415 FILLER_5_91
*1416 FILLER_5_138
*1417 FILLER_5_146
*1418 FILLER_5_150
*1419 FILLER_5_169
*1420 FILLER_6_18
*1421 FILLER_6_20
*1422 FILLER_6_32
*1423 FILLER_6_59
*1424 FILLER_6_81
*1425 FILLER_6_128
*1426 FILLER_6_152
*1427 FILLER_6_156
*1428 FILLER_6_159
*1429 FILLER_6_175
*1430 FILLER_7_1
*1431 FILLER_7_5
*1432 FILLER_7_14
*1433 FILLER_7_19
*1434 FILLER_7_21
*1435 FILLER_7_27
*1436 FILLER_7_52
*1437 FILLER_7_158
*1438 FILLER_7_173
*1439 FILLER_8_21
*1440 FILLER_8_46
*1441 FILLER_8_70
*1442 FILLER_8_148
*1443 FILLER_8_157
*1444 FILLER_8_175
*1445 FILLER_9_1
*1446 FILLER_9_3
*1447 FILLER_9_7
*1448 FILLER_9_14
*1449 FILLER_9_18
*1450 FILLER_9_20
*1451 FILLER_9_24
*1452 FILLER_9_26
*1453 FILLER_9_37
*1454 FILLER_9_91
*1455 FILLER_9_156
*1456 FILLER_9_164
*1457 FILLER_9_172
*1458 FILLER_10_1
*1459 FILLER_10_9
*1460 FILLER_10_21
*1461 FILLER_10_25
*1462 FILLER_10_47
*1463 FILLER_10_152
*1464 FILLER_10_168
*1465 FILLER_10_176
*1466 FILLER_11_1
*1467 FILLER_11_12
*1468 FILLER_11_36
*1469 FILLER_11_39
*1470 FILLER_11_62
*1471 FILLER_11_99
*1472 FILLER_11_156
*1473 FILLER_11_172
*1474 FILLER_11_176
*1475 FILLER_12_1
*1476 FILLER_12_20
*1477 FILLER_12_27
*1478 FILLER_12_60
*1479 FILLER_12_164
*1480 FILLER_12_169
*1481 FILLER_13_7
*1482 FILLER_13_15
*1483 FILLER_13_30
*1484 FILLER_13_73
*1485 FILLER_13_160
*1486 FILLER_13_164
*1487 FILLER_13_170
*1488 FILLER_13_174
*1489 FILLER_13_176
*1490 FILLER_14_4
*1491 FILLER_14_8
*1492 FILLER_14_12
*1493 FILLER_14_17
*1494 FILLER_14_24
*1495 FILLER_14_55
*1496 FILLER_14_97
*1497 FILLER_14_114
*1498 FILLER_14_156
*1499 FILLER_14_175
*1500 FILLER_15_1
*1501 FILLER_15_8
*1502 FILLER_15_16
*1503 FILLER_15_34
*1504 FILLER_15_148
*1505 FILLER_15_163
*1506 FILLER_15_165
*1507 FILLER_15_170
*1508 FILLER_16_1
*1509 FILLER_16_118
*1510 FILLER_16_161
*1511 FILLER_16_170
*1512 FILLER_16_175
*1513 FILLER_17_18
*1514 FILLER_17_40
*1515 FILLER_17_69
*1516 FILLER_17_106
*1517 FILLER_17_127
*1518 FILLER_17_151
*1519 FILLER_17_175
*1520 FILLER_18_1
*1521 FILLER_18_8
*1522 FILLER_18_16
*1523 FILLER_18_25
*1524 FILLER_18_61
*1525 FILLER_18_72
*1526 FILLER_18_76
*1527 FILLER_18_80
*1528 FILLER_18_86
*1529 FILLER_18_162
*1530 FILLER_18_166
*1531 FILLER_18_171
*1532 FILLER_18_173
*1533 FILLER_19_1
*1534 FILLER_19_5
*1535 FILLER_19_20
*1536 FILLER_19_28
*1537 FILLER_19_48
*1538 FILLER_19_89
*1539 FILLER_19_145
*1540 FILLER_19_155
*1541 FILLER_19_159
*1542 FILLER_20_1
*1543 FILLER_20_5
*1544 FILLER_20_31
*1545 FILLER_20_41
*1546 FILLER_20_63
*1547 FILLER_20_67
*1548 FILLER_20_87
*1549 FILLER_20_95
*1550 FILLER_20_127
*1551 FILLER_20_159
*1552 FILLER_20_171
*1553 FILLER_20_175
*1554 FILLER_21_1
*1555 FILLER_21_20
*1556 FILLER_21_36
*1557 FILLER_21_44
*1558 FILLER_21_51
*1559 FILLER_21_53
*1560 FILLER_21_57
*1561 FILLER_21_79
*1562 FILLER_21_84
*1563 FILLER_21_92
*1564 FILLER_21_135
*1565 FILLER_21_139
*1566 FILLER_21_157
*1567 FILLER_21_173
*1568 FILLER_22_1
*1569 FILLER_22_33
*1570 FILLER_22_49
*1571 FILLER_22_57
*1572 FILLER_22_61
*1573 FILLER_22_68
*1574 FILLER_22_76
*1575 FILLER_22_80
*1576 FILLER_22_88
*1577 FILLER_22_90
*1578 FILLER_22_94
*1579 FILLER_22_104
*1580 FILLER_22_112
*1581 FILLER_22_116
*1582 FILLER_22_119
*1583 FILLER_22_123
*1584 FILLER_22_128
*1585 FILLER_22_136
*1586 FILLER_22_140
*1587 FILLER_22_142
*1588 FILLER_22_150
*1589 FILLER_22_166
*1590 FILLER_22_174
*1591 FILLER_22_176
*1592 FILLER_23_1
*1593 FILLER_23_33
*1594 FILLER_23_49
*1595 FILLER_23_63
*1596 FILLER_23_71
*1597 FILLER_23_75
*1598 FILLER_23_82
*1599 FILLER_23_104
*1600 FILLER_23_112
*1601 FILLER_23_116
*1602 FILLER_23_124
*1603 FILLER_23_140
*1604 FILLER_23_144
*1605 FILLER_23_176

*PORTS
clk I
req_msg[0] I
req_msg[10] I
req_msg[11] I
req_msg[12] I
req_msg[13] I
req_msg[14] I
req_msg[15] I
req_msg[16] I
req_msg[17] I
req_msg[18] I
req_msg[19] I
req_msg[1] I
req_msg[20] I
req_msg[21] I
req_msg[22] I
req_msg[23] I
req_msg[24] I
req_msg[25] I
req_msg[26] I
req_msg[27] I
req_msg[28] I
req_msg[29] I
req_msg[2] I
req_msg[30] I
req_msg[31] I
req_msg[3] I
req_msg[4] I
req_msg[5] I
req_msg[6] I
req_msg[7] I
req_msg[8] I
req_msg[9] I
req_rdy O
req_val I
reset I
resp_msg[0] O
resp_msg[10] O
resp_msg[11] O
resp_msg[12] O
resp_msg[13] O
resp_msg[14] O
resp_msg[15] O
resp_msg[1] O
resp_msg[2] O
resp_msg[3] O
resp_msg[4] O
resp_msg[5] O
resp_msg[6] O
resp_msg[7] O
resp_msg[8] O
resp_msg[9] O
resp_rdy I
resp_val O

*D_NET *1 0.000240345
*CONN
*I *1146:D I *D DFF_X2
*I *718:ZN O *D OAI21_X1
*CAP
1 *1146:D 7.39886e-05
2 *718:ZN 7.39886e-05
3 *1146:D *716:B1 5.50866e-05
4 *1146:D *718:A 4.78054e-06
5 *1146:D *718:B1 4.63011e-08
6 *1146:D *718:B2 1.62377e-05
7 *1146:D *632:49 1.6217e-05
*RES
1 *718:ZN *1146:D 29.8929 
*END

*D_NET *2 0.000417562
*CONN
*I *1147:D I *D DFF_X1
*I *716:ZN O *D OAI21_X1
*CAP
1 *1147:D 0.000129756
2 *716:ZN 0.000129756
3 *1147:D resp_val 5.34687e-05
4 *1147:D *680:A 0
5 *1147:D *711:A 9.59211e-06
6 *1147:D *714:A 0
7 *1147:D *715:A2 1.0349e-05
8 *1147:D *716:A 7.29164e-07
9 *1147:D *716:B2 1.76665e-06
10 *1147:D *973:A1 1.12494e-05
11 *1147:D *67:8 1.48969e-05
12 *1147:D *69:12 6.38328e-07
13 *1147:D *486:8 0
14 *1147:D *572:12 5.53593e-05
15 *1147:D *628:45 0
*RES
1 *716:ZN *1147:D 35.4286 
*END

*D_NET *3 0.000105077
*CONN
*I *1148:D I *D DFF_X1
*I *710:ZN O *D OAI21_X1
*CAP
1 *1148:D 4.69939e-05
2 *710:ZN 4.69939e-05
3 *1148:D *707:A 2.14856e-06
4 *1148:D *1148:CK 8.94115e-06
*RES
1 *710:ZN *1148:D 15.25 
*END

*D_NET *4 0.00638369
*CONN
*I *998:A3 I *D NAND3_X1
*I *1012:A3 I *D NAND3_X1
*I *1019:A3 I *D NAND3_X1
*I *1005:A3 I *D NAND3_X1
*I *1334:A1 I *D NAND2_X4
*I *1335:A1 I *D NAND2_X2
*I *991:A3 I *D NAND3_X1
*I *1080:A1 I *D NAND2_X4
*I *970:A3 I *D NAND4_X4
*I *713:A3 I *D AND3_X1
*I *1146:QN O *D DFF_X2
*CAP
1 *998:A3 2.65735e-05
2 *1012:A3 2.72513e-05
3 *1019:A3 8.00138e-05
4 *1005:A3 1.51703e-05
5 *1334:A1 9.59285e-06
6 *1335:A1 0.000120185
7 *991:A3 0
8 *1080:A1 8.10563e-06
9 *970:A3 0
10 *713:A3 7.85161e-05
11 *1146:QN 8.80044e-05
12 *4:131 0.000157054
13 *4:118 0.000291371
14 *4:98 0.00029919
15 *4:84 0.000698009
16 *4:74 0.000795821
17 *4:72 0.000226766
18 *4:59 0.000367215
19 *4:44 0.000258223
20 *4:16 0.00015284
21 *4:10 0.000185426
22 *713:A3 *711:A 2.80355e-05
23 *713:A3 *715:A2 2.75346e-06
24 *713:A3 *985:A1 0.000114108
25 *713:A3 *989:A3 1.19839e-05
26 *713:A3 *296:64 3.37286e-06
27 *713:A3 *307:12 1.55671e-05
28 *713:A3 *321:18 0.000131119
29 *713:A3 *486:8 8.26038e-06
30 *713:A3 *572:12 1.11258e-05
31 *713:A3 *632:30 0
32 *713:A3 *632:49 7.72792e-06
33 *998:A3 *888:A1 5.21881e-05
34 *998:A3 *998:A2 4.97446e-06
35 *998:A3 *1000:A1 1.18096e-06
36 *998:A3 *1098:A1 5.50692e-06
37 *998:A3 *1250:A 1.40481e-05
38 *998:A3 *51:14 5.05238e-06
39 *1005:A3 *1005:A1 7.21335e-06
40 *1005:A3 *1007:A2 2.08416e-06
41 *1005:A3 *248:10 3.19164e-07
42 *1012:A3 *932:A2 2.75346e-06
43 *1012:A3 *1012:A2 2.75346e-06
44 *1012:A3 *1019:A1 3.03729e-05
45 *1012:A3 *1102:B1 4.21043e-07
46 *1012:A3 *1304:A 1.4491e-05
47 *1019:A3 *920:A 7.33336e-08
48 *1019:A3 *1019:A1 1.1194e-05
49 *1019:A3 *1102:B1 1.68891e-06
50 *1019:A3 *1304:A 1.76665e-06
51 *1019:A3 *1307:A 3.33658e-05
52 *1019:A3 *1325:A 6.65423e-06
53 *1019:A3 *271:10 1.6095e-06
54 *1019:A3 *310:198 2.85011e-06
55 *1080:A1 *487:31 0
56 *1334:A1 *835:A4 1.68643e-06
57 *1334:A1 *856:A2 1.85634e-05
58 *1334:A1 *162:42 1.32348e-05
59 *1335:A1 *806:A 2.07669e-05
60 *1335:A1 *806:B1 1.14895e-05
61 *1335:A1 *806:B2 4.15825e-06
62 *1335:A1 *808:A1 0
63 *1335:A1 *814:A 1.21774e-06
64 *1335:A1 *845:A 3.65322e-06
65 *1335:A1 *1267:A 2.87248e-06
66 *1335:A1 *141:6 0
67 *1335:A1 *141:29 0
68 *1335:A1 *149:6 0
69 *1335:A1 *188:10 2.132e-05
70 *1335:A1 *625:14 2.83434e-06
71 *4:10 *716:B1 0
72 *4:10 *973:A2 8.31026e-06
73 *4:10 *1080:A2 1.52083e-06
74 *4:10 *487:31 0
75 *4:10 *552:8 3.09411e-06
76 *4:10 *628:29 1.9254e-05
77 *4:16 *989:A3 4.10646e-05
78 *4:16 *1143:B2 0
79 *4:16 *296:64 2.39679e-06
80 *4:16 *401:10 1.79656e-05
81 *4:16 *487:31 1.95465e-05
82 *4:16 *552:44 0
83 *4:44 *1080:A2 1.46651e-05
84 *4:59 *988:A1 2.39172e-05
85 *4:59 *991:A2 7.72792e-06
86 *4:59 *995:A2 0
87 *4:59 *1080:A2 7.93907e-05
88 *4:59 *1093:B1 2.70288e-06
89 *4:59 *1094:A1 2.34717e-05
90 *4:59 *1094:A2 3.5606e-06
91 *4:59 *1281:A 2.6981e-05
92 *4:59 *324:19 1.90946e-05
93 *4:59 *324:34 6.06168e-06
94 *4:59 *325:14 8.65476e-05
95 *4:59 *505:14 0.00012797
96 *4:59 *617:10 8.10717e-06
97 *4:59 *617:133 3.32904e-05
98 *4:59 *628:29 4.12796e-06
99 *4:72 *694:A1 5.39451e-05
100 *4:72 *867:A 0
101 *4:72 *991:A2 2.75346e-06
102 *4:72 *993:A1 5.01648e-06
103 *4:72 *994:A1 3.93749e-06
104 *4:72 *1093:B1 3.89039e-05
105 *4:72 *1094:A2 5.16981e-06
106 *4:72 *1250:A 5.30786e-06
107 *4:72 *51:14 2.85523e-05
108 *4:72 *325:26 3.28301e-05
109 *4:74 *888:A1 6.3284e-05
110 *4:74 *892:A2 1.79644e-05
111 *4:74 *1250:A 4.66497e-06
112 *4:74 *485:18 0
113 *4:84 *892:A2 6.58502e-05
114 *4:84 *919:A1 2.1286e-06
115 *4:84 *946:A 0
116 *4:84 *1331:A1 0.000146693
117 *4:84 *162:42 1.72426e-05
118 *4:84 *176:16 7.13377e-06
119 *4:84 *485:18 0
120 *4:84 *624:61 1.73883e-05
121 *4:98 *808:A2 6.46512e-05
122 *4:98 *839:A2 2.11857e-06
123 *4:98 *853:A1 3.83783e-05
124 *4:98 *1331:A2 5.16146e-06
125 *4:98 *141:29 9.72818e-05
126 *4:98 *141:42 5.33113e-06
127 *4:98 *162:8 3.49085e-06
128 *4:98 *162:21 8.54162e-05
129 *4:98 *162:42 1.11764e-05
130 *4:98 *176:16 5.65635e-05
131 *4:98 *180:18 9.21278e-06
132 *4:118 *886:A1 0
133 *4:118 *888:A1 1.40852e-06
134 *4:118 *908:A1 9.43378e-06
135 *4:118 *909:A2 6.57759e-07
136 *4:118 *1007:A2 4.26902e-05
137 *4:118 *1102:B1 0
138 *4:118 *1108:B2 2.89018e-05
139 *4:118 *1321:A 6.84295e-05
140 *4:118 *229:12 8.92472e-05
141 *4:118 *230:32 6.10204e-07
142 *4:118 *240:36 0
143 *4:118 *325:26 0
144 *4:118 *339:18 1.11327e-05
145 *4:118 *507:10 0
146 *4:118 *624:97 0
147 *4:118 *651:18 2.97557e-05
148 *4:118 *677:98 0
149 *4:131 *1005:A2 2.09048e-05
150 *4:131 *1007:A2 1.27467e-05
151 *4:131 *1102:B1 0
152 *4:131 *1321:A 5.41015e-05
153 *4:131 *270:20 1.16091e-05
*RES
1 *1146:QN *4:10 19.75 
2 *4:10 *4:16 15.1786 