*SPEF "ieee 1481-1999"
*DESIGN "gcd"
*DATE "22:31:57 Saturday February 14, 2026"
*VENDOR "The OpenROAD Project"
*PROGRAM "OpenROAD"
*VERSION "26Q1-951-g6975124cf2"
*DESIGN_FLOW "NAME_SCOPE LOCAL" "PIN_CAP NONE"
*DIVIDER /
*DELIMITER :
*BUS_DELIMITER []
*T_UNIT 1 NS
*C_UNIT 1 PF
*R_UNIT 1 OHM
*L_UNIT 1 HENRY

*NAME_MAP
*1 _000_
*2 _001_
*3 _002_
*4 _003_
*5 _004_
*6 _005_
*7 _006_
*8 _007_
*9 _008_
*10 _009_
*11 _010_
*12 _011_
*13 _012_
*14 _013_
*15 _014_
*16 _015_
*17 _016_
*18 _017_
*19 _018_
*20 _019_
*21 _020_
*22 _021_
*23 _022_
*24 _023_
*25 _024_
*26 _025_
*27 _026_
*28 _027_
*29 _028_
*30 _029_
*31 _030_
*32 _031_
*33 _032_
*34 _033_
*35 _034_
*36 _035_
*37 _036_
*38 req_msg[24]
*39 req_msg[23]
*40 req_msg[22]
*41 _040_
*42 _041_
*43 _042_
*44 _043_
*45 _044_
*46 _045_
*47 _046_
*48 _047_
*49 _048_
*50 _049_
*51 _050_
*52 _051_
*53 _052_
*54 _053_
*55 _054_
*56 _055_
*57 _056_
*58 _057_
*59 _058_
*60 _059_
*61 _060_
*62 _061_
*63 _062_
*64 _063_
*65 req_msg[21]
*66 _065_
*67 _066_
*68 req_msg[20]
*69 _068_
*70 _069_
*71 _070_
*72 _071_
*73 req_msg[1]
*74 _073_
*75 _074_
*76 _075_
*77 _076_
*78 _077_
*79 _078_
*80 _079_
*81 _080_
*82 _081_
*83 _082_
*84 _083_
*85 _084_
*86 _085_
*87 _086_
*88 _087_
*89 _088_
*90 _089_
*91 _090_
*92 _091_
*93 _092_
*94 _093_
*95 _094_
*96 _095_
*97 _096_
*98 _097_
*99 _098_
*100 _099_
*101 _100_
*102 _101_
*103 _102_
*104 _103_
*105 _104_
*106 _105_
*107 _106_
*108 req_msg[19]
*109 _108_
*110 _109_
*111 _110_
*112 _111_
*113 _112_
*114 _113_
*115 _114_
*116 _115_
*117 _116_
*118 _117_
*119 _118_
*120 _119_
*121 _120_
*122 _121_
*123 _122_
*124 _123_
*125 _124_
*126 _125_
*127 _126_
*128 _127_
*129 _128_
*130 _129_
*131 _130_
*132 _131_
*133 _132_
*134 _133_
*135 _134_
*136 _135_
*137 _136_
*138 _137_
*139 _138_
*140 _139_
*141 _140_
*142 _141_
*143 _142_
*144 _143_
*145 _144_
*146 _145_
*147 _146_
*148 _147_
*149 _148_
*150 _149_
*151 _150_
*152 _151_
*153 _152_
*154 _153_
*155 _154_
*156 _155_
*157 _156_
*158 _157_
*159 _158_
*160 _159_
*161 _160_
*162 _161_
*163 _162_
*164 _163_
*165 _164_
*166 _165_
*167 _166_
*168 _167_
*169 _168_
*170 _169_
*171 _170_
*172 _171_
*173 _172_
*174 _173_
*175 _174_
*176 _175_
*177 _176_
*178 _177_
*179 _178_
*180 _179_
*181 _180_
*182 _181_
*183 _182_
*184 _183_
*185 _184_
*186 _185_
*187 _186_
*188 _187_
*189 _188_
*190 _189_
*191 _190_
*192 _191_
*193 _192_
*194 _193_
*195 _194_
*196 _195_
*197 _196_
*198 _197_
*199 _198_
*200 _199_
*201 _200_
*202 _201_
*203 _202_
*204 _203_
*205 _204_
*206 _205_
*207 _206_
*208 _207_
*209 _208_
*210 _209_
*211 _210_
*212 _211_
*213 _212_
*214 _213_
*215 _214_
*216 _215_
*217 _216_
*218 _217_
*219 _218_
*220 _219_
*221 _220_
*222 _221_
*223 _222_
*224 _223_
*225 _224_
*226 _225_
*227 _226_
*228 _227_
*229 _228_
*230 _229_
*231 _230_
*232 _231_
*233 _232_
*234 _233_
*235 _234_
*236 _235_
*237 _236_
*238 _237_
*239 _238_
*240 _239_
*241 _240_
*242 _241_
*243 _242_
*244 _243_
*245 _244_
*246 _245_
*247 _246_
*248 _247_
*249 _248_
*250 _249_
*251 _250_
*252 _251_
*253 _252_
*254 _253_
*255 _254_
*256 _255_
*257 _256_
*258 _257_
*259 _258_
*260 _259_
*261 _260_
*262 _261_
*263 _262_
*264 _263_
*265 _264_
*266 _265_
*267 _266_
*268 _267_
*269 _268_
*270 _269_
*271 _270_
*272 _271_
*273 _272_
*274 _273_
*275 _274_
*276 _275_
*277 _276_
*278 _277_
*279 _278_
*280 _279_
*281 _280_
*282 _281_
*283 _282_
*284 _283_
*285 _284_
*286 _285_
*287 _286_
*288 _287_
*289 _288_
*290 _289_
*291 _290_
*292 _291_
*293 _292_
*294 _293_
*295 _294_
*296 _295_
*297 _296_
*298 _297_
*299 _298_
*300 _299_
*301 _300_
*302 _301_
*303 _302_
*304 _303_
*305 req_msg[18]
*306 _305_
*307 _306_
*308 req_msg[17]
*309 _308_
*310 _309_
*311 req_msg[16]
*312 _311_
*313 _312_
*314 req_msg[15]
*315 _314_
*316 req_msg[14]
*317 req_msg[13]
*318 _317_
*319 _318_
*320 _319_
*321 _320_
*322 _321_
*323 _322_
*324 _323_
*325 _324_
*326 _325_
*327 _326_
*328 _327_
*329 _328_
*330 _329_
*331 _330_
*332 _331_
*333 _332_
*334 _333_
*335 _334_
*336 _335_
*337 _336_
*338 _337_
*339 _338_
*340 _339_
*341 _340_
*342 _341_
*343 _342_
*344 _343_
*345 _344_
*346 _345_
*347 _346_
*348 _347_
*349 _348_
*350 _349_
*351 _350_
*352 _351_
*353 _352_
*354 _353_
*355 _354_
*356 _355_
*357 _356_
*358 _357_
*359 _358_
*360 _359_
*361 _360_
*362 _361_
*363 _362_
*364 _363_
*365 _364_
*366 _365_
*367 _366_
*368 _367_
*369 _368_
*370 _369_
*371 _370_
*372 _371_
*373 _372_
*374 _373_
*375 _374_
*376 _375_
*377 _376_
*378 _377_
*379 _378_
*380 _379_
*381 _380_
*382 _381_
*383 _382_
*384 _383_
*385 _384_
*386 _385_
*387 _386_
*388 _387_
*389 _388_
*390 _389_
*391 _390_
*392 _391_
*393 _392_
*394 _393_
*395 _394_
*396 _395_
*397 _396_
*398 _397_
*399 _398_
*400 _399_
*401 _400_
*402 req_msg[12]
*403 _402_
*404 _403_
*405 _404_
*406 req_msg[11]
*407 _406_
*408 _407_
*409 _408_
*410 _409_
*411 req_msg[10]
*412 _411_
*413 _412_
*414 _413_
*415 _414_
*416 _415_
*417 req_msg[0]
*418 _417_
*419 _418_
*420 _419_
*421 _420_
*422 _421_
*423 _422_
*424 _423_
*425 _424_
*426 _425_
*427 _426_
*428 _427_
*429 _428_
*430 _429_
*431 _430_
*432 _431_
*433 _432_
*434 _433_
*435 _434_
*436 _435_
*437 _436_
*438 _437_
*439 _438_
*440 _439_
*441 _440_
*442 _441_
*443 _442_
*444 _443_
*445 _444_
*446 _445_
*447 _446_
*448 _447_
*449 _448_
*450 _449_
*451 _450_
*452 _451_
*453 _452_
*454 _453_
*455 _454_
*456 _455_
*457 _456_
*458 _457_
*459 _458_
*460 _459_
*461 _460_
*462 _461_
*463 _462_
*464 _463_
*465 _464_
*466 _465_
*467 _466_
*468 _467_
*469 _468_
*470 _469_
*471 _470_
*472 _471_
*473 _472_
*474 _473_
*475 _474_
*476 _475_
*477 _476_
*478 _477_
*479 _478_
*480 _479_
*481 _480_
*482 _481_
*483 _482_
*484 _483_
*485 clk
*486 ctrl\.state\.out\[1\]
*487 ctrl\.state\.out\[2\]
*488 dpath\.a_lt_b\$in0\[0\]
*489 dpath\.a_lt_b\$in0\[10\]
*490 dpath\.a_lt_b\$in0\[11\]
*491 dpath\.a_lt_b\$in0\[12\]
*492 dpath\.a_lt_b\$in0\[13\]
*493 dpath\.a_lt_b\$in0\[14\]
*494 dpath\.a_lt_b\$in0\[15\]
*495 dpath\.a_lt_b\$in0\[1\]
*496 dpath\.a_lt_b\$in0\[2\]
*497 dpath\.a_lt_b\$in0\[3\]
*498 dpath\.a_lt_b\$in0\[4\]
*499 dpath\.a_lt_b\$in0\[5\]
*500 dpath\.a_lt_b\$in0\[6\]
*501 dpath\.a_lt_b\$in0\[7\]
*502 dpath\.a_lt_b\$in0\[8\]
*503 dpath\.a_lt_b\$in0\[9\]
*504 dpath\.a_lt_b\$in1\[0\]
*505 dpath\.a_lt_b\$in1\[10\]
*506 dpath\.a_lt_b\$in1\[11\]
*507 dpath\.a_lt_b\$in1\[12\]
*508 dpath\.a_lt_b\$in1\[13\]
*509 dpath\.a_lt_b\$in1\[14\]
*510 dpath\.a_lt_b\$in1\[15\]
*511 dpath\.a_lt_b\$in1\[1\]
*512 dpath\.a_lt_b\$in1\[2\]
*513 dpath\.a_lt_b\$in1\[3\]
*514 dpath\.a_lt_b\$in1\[4\]
*515 dpath\.a_lt_b\$in1\[5\]
*516 dpath\.a_lt_b\$in1\[6\]
*517 dpath\.a_lt_b\$in1\[7\]
*518 dpath\.a_lt_b\$in1\[8\]
*519 dpath\.a_lt_b\$in1\[9\]
*520 net1
*521 net2
*522 net3
*523 net4
*524 net5
*525 net6
*526 net7
*527 net8
*528 net9
*529 net10
*530 net11
*531 net12
*532 net13
*533 net14
*534 net15
*535 net16
*536 net17
*537 net18
*538 net19
*539 net20
*540 net21
*541 net22
*542 net23
*543 net24
*544 net25
*545 net26
*546 net27
*547 net28
*548 net29
*549 net30
*550 net31
*551 net32
*552 net36
*553 net33
*554 net34
*555 net37
*556 net38
*557 net39
*558 net40
*559 net41
*560 net42
*561 net43
*562 net44
*563 net45
*564 net46
*565 net47
*566 net48
*567 net49
*568 net50
*569 net51
*570 net52
*571 net35
*572 net53
*575 req_msg[25]
*576 req_msg[26]
*577 req_msg[27]
*578 req_msg[28]
*579 req_msg[29]
*580 req_msg[2]
*581 req_msg[30]
*582 req_msg[31]
*583 req_msg[3]
*584 req_msg[4]
*585 req_msg[5]
*586 req_msg[6]
*587 req_msg[7]
*588 req_msg[8]
*589 req_msg[9]
*590 req_val
*591 reset
*592 resp_rdy
*593 req_rdy
*594 resp_msg[0]
*595 resp_msg[10]
*596 resp_msg[11]
*597 resp_msg[12]
*598 resp_msg[13]
*599 resp_msg[14]
*600 resp_msg[15]
*601 resp_msg[1]
*602 resp_msg[2]
*603 resp_msg[3]
*604 resp_msg[4]
*605 resp_msg[5]
*606 resp_msg[6]
*607 resp_msg[7]
*608 resp_msg[8]
*609 resp_msg[9]
*610 resp_val
*611 clknet_0_clk
*612 net55
*613 net56
*614 clknet_2_0__leaf_clk
*615 clknet_2_1__leaf_clk
*616 clknet_2_2__leaf_clk
*617 clknet_2_3__leaf_clk
*618 net57
*619 net58
*620 net59
*621 net60
*622 net61
*623 net62
*624 net63
*625 net64
*626 net65
*627 net66
*628 net67
*629 net68
*630 net69
*631 net70
*632 net71
*633 net72
*634 net73
*635 net74
*636 net75
*637 net76
*638 net77
*639 net78
*640 net79
*641 net80
*642 net81
*643 net82
*644 net83
*645 net84
*646 net85
*647 net86
*648 net87
*649 net97
*650 net104
*651 net105
*652 net106
*653 net110
*654 net111
*655 net114
*656 net115
*657 net116
*658 net117
*659 net126
*660 net127
*661 net128
*662 _484_
*663 input17
*664 input16
*665 input15
*666 _488_
*667 _489_
*668 _490_
*669 _491_
*670 _492_
*671 _493_
*672 _494_
*673 _495_
*674 _496_
*675 _497_
*676 _498_
*677 _499_
*678 _500_
*679 _501_
*680 _502_
*681 _503_
*682 _504_
*683 _505_
*684 _506_
*685 _507_
*686 _508_
*687 _509_
*688 _510_
*689 _511_
*690 input14
*691 _513_
*692 _514_
*693 _515_
*694 input13
*695 _517_
*696 _518_
*697 _519_
*698 _520_
*699 _521_
*700 _522_
*701 _523_
*702 _524_
*703 input12
*704 _526_
*705 _527_
*706 _528_
*707 _529_
*708 _530_
*709 _531_
*710 _532_
*711 _533_
*712 _534_
*713 _535_
*714 _536_
*715 _537_
*716 _538_
*717 _539_
*718 _540_
*719 _541_
*720 _542_
*721 _543_
*722 _544_
*723 _545_
*724 _546_
*725 _547_
*726 _548_
*727 _549_
*728 _550_
*729 _551_
*730 _552_
*731 _553_
*732 _554_
*733 _555_
*734 _556_
*735 _557_
*736 _558_
*737 _559_
*738 _560_
*739 _561_
*740 _562_
*741 _563_
*742 input11
*743 _565_
*744 _566_
*745 _567_
*746 _568_
*747 _569_
*748 _570_
*749 _571_
*750 _572_
*751 _573_
*752 _574_
*753 _575_
*754 _576_
*755 _577_
*756 _578_
*757 _579_
*758 _580_
*759 _581_
*760 _582_
*761 _583_
*762 _584_
*763 _585_
*764 _586_
*765 _587_
*766 _588_
*767 _589_
*768 _590_
*769 _591_
*770 _592_
*771 _593_
*772 _594_
*773 _595_
*774 _596_
*775 _597_
*776 _598_
*777 _599_
*778 _600_
*779 _601_
*780 _602_
*781 _603_
*782 _604_
*783 _605_
*784 _606_
*785 _607_
*786 _608_
*787 _609_
*788 _610_
*789 _611_
*790 _612_
*791 _613_
*792 _614_
*793 _615_
*794 _616_
*795 _617_
*796 _618_
*797 _619_
*798 _620_
*799 _621_
*800 _622_
*801 _623_
*802 _624_
*803 _625_
*804 _626_
*805 _627_
*806 _628_
*807 _629_
*808 _630_
*809 _631_
*810 _632_
*811 _633_
*812 _634_
*813 _635_
*814 _636_
*815 _637_
*816 _638_
*817 _639_
*818 _640_
*819 _641_
*820 _642_
*821 _643_
*822 _644_
*823 _645_
*824 _646_
*825 _647_
*826 _648_
*827 _649_
*828 _650_
*829 _651_
*830 _652_
*831 _653_
*832 _654_
*833 _655_
*834 _656_
*835 _657_
*836 _658_
*837 _659_
*838 _660_
*839 _661_
*840 _662_
*841 _663_
*842 _664_
*843 _665_
*844 _666_
*845 _667_
*846 _668_
*847 _669_
*848 _670_
*849 _671_
*850 _672_
*851 _673_
*852 _674_
*853 _675_
*854 _676_
*855 _677_
*856 _678_
*857 _679_
*858 _680_
*859 _681_
*860 _682_
*861 _683_
*862 _684_
*863 _685_
*864 _686_
*865 _687_
*866 _688_
*867 _689_
*868 _690_
*869 _691_
*870 _692_
*871 _693_
*872 _694_
*873 _695_
*874 _696_
*875 _697_
*876 _698_
*877 _699_
*878 _700_
*879 _701_
*880 _702_
*881 _703_
*882 _704_
*883 _705_
*884 _706_
*885 _707_
*886 _708_
*887 _709_
*888 _710_
*889 _711_
*890 _712_
*891 _713_
*892 _714_
*893 _715_
*894 _716_
*895 _717_
*896 _718_
*897 _719_
*898 _720_
*899 _721_
*900 _722_
*901 _723_
*902 _724_
*903 _725_
*904 _726_
*905 _727_
*906 _728_
*907 _729_
*908 _730_
*909 _731_
*910 _732_
*911 _733_
*912 _734_
*913 _735_
*914 _736_
*915 _737_
*916 _738_
*917 _739_
*918 _740_
*919 _741_
*920 _742_
*921 _743_
*922 _744_
*923 _745_
*924 _746_
*925 _747_
*926 _748_
*927 _749_
*928 _750_
*929 _751_
*930 _752_
*931 _753_
*932 _754_
*933 _755_
*934 _756_
*935 _757_
*936 _758_
*937 _759_
*938 _760_
*939 _761_
*940 _762_
*941 _763_
*942 _764_
*943 _765_
*944 _766_
*945 _767_
*946 _768_
*947 _769_
*948 _770_
*949 _771_
*950 input10
*951 _773_
*952 _774_
*953 input9
*954 _776_
*955 _777_
*956 input8
*957 _779_
*958 _780_
*959 input7
*960 _782_
*961 input6
*962 input5
*963 _785_
*964 _786_
*965 _787_
*966 _788_
*967 _789_
*968 _790_
*969 _791_
*970 _792_
*971 _793_
*972 _794_
*973 _795_
*974 _796_
*975 _797_
*976 _798_
*977 _799_
*978 _800_
*979 _801_
*980 _802_
*981 _803_
*982 _804_
*983 _805_
*984 _806_
*985 _807_
*986 _808_
*987 _809_
*988 _810_
*989 _811_
*990 _812_
*991 _813_
*992 _814_
*993 _815_
*994 _816_
*995 _817_
*996 _818_
*997 _819_
*998 _820_
*999 _821_
*1000 _822_
*1001 _823_
*1002 _824_
*1003 _825_
*1004 _826_
*1005 _827_
*1006 _828_
*1007 _829_
*1008 _830_
*1009 _831_
*1010 _832_
*1011 _833_
*1012 _834_
*1013 _835_
*1014 _836_
*1015 _837_
*1016 _838_
*1017 _839_
*1018 _840_
*1019 _841_
*1020 _842_
*1021 _843_
*1022 _844_
*1023 _845_
*1024 _846_
*1025 _847_
*1026 _848_
*1027 _849_
*1028 _850_
*1029 _851_
*1030 _852_
*1031 _853_
*1032 _854_
*1033 _855_
*1034 _856_
*1035 _857_
*1036 _858_
*1037 _859_
*1038 _860_
*1039 _861_
*1040 _862_
*1041 _863_
*1042 _864_
*1043 _865_
*1044 _866_
*1045 _867_
*1046 _868_
*1047 _869_
*1048 _870_
*1049 _871_
*1050 _872_
*1051 _873_
*1052 _874_
*1053 _875_
*1054 _876_
*1055 _877_
*1056 _878_
*1057 _879_
*1058 _880_
*1059 _881_
*1060 _882_
*1061 _883_
*1062 _884_
*1063 input4
*1064 _886_
*1065 _887_
*1066 _888_
*1067 input3
*1068 _890_
*1069 _891_
*1070 _892_
*1071 _893_
*1072 _894_
*1073 _895_
*1074 input2
*1075 _897_
*1076 _898_
*1077 _899_
*1078 _900_
*1079 _901_
*1080 _902_
*1081 _903_
*1082 input1
*1083 _905_
*1084 _906_
*1085 _907_
*1086 _908_
*1087 _909_
*1088 _910_
*1089 _911_
*1090 _912_
*1091 _913_
*1092 _914_
*1093 _915_
*1094 _916_
*1095 _917_
*1096 _918_
*1097 _919_
*1098 _920_
*1099 _921_
*1100 _922_
*1101 _923_
*1102 _924_
*1103 _925_
*1104 _926_
*1105 _927_
*1106 _928_
*1107 _929_
*1108 _930_
*1109 _931_
*1110 _932_
*1111 _933_
*1112 _934_
*1113 _935_
*1114 _936_
*1115 _937_
*1116 _938_
*1117 _939_
*1118 _940_
*1119 _941_
*1120 _942_
*1121 _943_
*1122 _944_
*1123 _945_
*1124 _946_
*1125 _947_
*1126 _948_
*1127 _949_
*1128 ctrl\.state\.out\[0\]\$_DFF_P_
*1129 ctrl\.state\.out\[1\]\$_DFF_P_
*1130 ctrl\.state\.out\[2\]\$_DFF_P_
*1131 dpath\.a_reg\.out\[0\]\$_DFFE_PP_
*1132 dpath\.a_reg\.out\[10\]\$_DFFE_PP_
*1133 dpath\.a_reg\.out\[11\]\$_DFFE_PP_
*1134 dpath\.a_reg\.out\[12\]\$_DFFE_PP_
*1135 dpath\.a_reg\.out\[13\]\$_DFFE_PP_
*1136 dpath\.a_reg\.out\[14\]\$_DFFE_PP_
*1137 dpath\.a_reg\.out\[15\]\$_DFFE_PP_
*1138 dpath\.a_reg\.out\[1\]\$_DFFE_PP_
*1139 dpath\.a_reg\.out\[2\]\$_DFFE_PP_
*1140 dpath\.a_reg\.out\[3\]\$_DFFE_PP_
*1141 dpath\.a_reg\.out\[4\]\$_DFFE_PP_
*1142 dpath\.a_reg\.out\[5\]\$_DFFE_PP_
*1143 dpath\.a_reg\.out\[6\]\$_DFFE_PP_
*1144 dpath\.a_reg\.out\[7\]\$_DFFE_PP_
*1145 dpath\.a_reg\.out\[8\]\$_DFFE_PP_
*1146 dpath\.a_reg\.out\[9\]\$_DFFE_PP_
*1147 dpath\.b_reg\.out\[0\]\$_DFFE_PP_
*1148 dpath\.b_reg\.out\[10\]\$_DFFE_PP_
*1149 dpath\.b_reg\.out\[11\]\$_DFFE_PP_
*1150 dpath\.b_reg\.out\[12\]\$_DFFE_PP_
*1151 dpath\.b_reg\.out\[13\]\$_DFFE_PP_
*1152 dpath\.b_reg\.out\[14\]\$_DFFE_PP_
*1153 dpath\.b_reg\.out\[15\]\$_DFFE_PP_
*1154 dpath\.b_reg\.out\[1\]\$_DFFE_PP_
*1155 dpath\.b_reg\.out\[2\]\$_DFFE_PP_
*1156 dpath\.b_reg\.out\[3\]\$_DFFE_PP_
*1157 dpath\.b_reg\.out\[4\]\$_DFFE_PP_
*1158 dpath\.b_reg\.out\[5\]\$_DFFE_PP_
*1159 dpath\.b_reg\.out\[6\]\$_DFFE_PP_
*1160 dpath\.b_reg\.out\[7\]\$_DFFE_PP_
*1161 dpath\.b_reg\.out\[8\]\$_DFFE_PP_
*1162 dpath\.b_reg\.out\[9\]\$_DFFE_PP_
*1163 PHY_EDGE_ROW_0_Right_0
*1164 PHY_EDGE_ROW_1_Right_1
*1165 PHY_EDGE_ROW_2_Right_2
*1166 PHY_EDGE_ROW_3_Right_3
*1167 PHY_EDGE_ROW_4_Right_4
*1168 PHY_EDGE_ROW_5_Right_5
*1169 PHY_EDGE_ROW_6_Right_6
*1170 PHY_EDGE_ROW_7_Right_7
*1171 PHY_EDGE_ROW_8_Right_8
*1172 PHY_EDGE_ROW_9_Right_9
*1173 PHY_EDGE_ROW_10_Right_10
*1174 PHY_EDGE_ROW_11_Right_11
*1175 PHY_EDGE_ROW_12_Right_12
*1176 PHY_EDGE_ROW_13_Right_13
*1177 PHY_EDGE_ROW_14_Right_14
*1178 PHY_EDGE_ROW_15_Right_15
*1179 PHY_EDGE_ROW_16_Right_16
*1180 PHY_EDGE_ROW_17_Right_17
*1181 PHY_EDGE_ROW_18_Right_18
*1182 PHY_EDGE_ROW_19_Right_19
*1183 PHY_EDGE_ROW_20_Right_20
*1184 PHY_EDGE_ROW_21_Right_21
*1185 PHY_EDGE_ROW_22_Right_22
*1186 PHY_EDGE_ROW_23_Right_23
*1187 PHY_EDGE_ROW_0_Left_24
*1188 PHY_EDGE_ROW_1_Left_25
*1189 PHY_EDGE_ROW_2_Left_26
*1190 PHY_EDGE_ROW_3_Left_27
*1191 PHY_EDGE_ROW_4_Left_28
*1192 PHY_EDGE_ROW_5_Left_29
*1193 PHY_EDGE_ROW_6_Left_30
*1194 PHY_EDGE_ROW_7_Left_31
*1195 PHY_EDGE_ROW_8_Left_32
*1196 PHY_EDGE_ROW_9_Left_33
*1197 PHY_EDGE_ROW_10_Left_34
*1198 PHY_EDGE_ROW_11_Left_35
*1199 PHY_EDGE_ROW_12_Left_36
*1200 PHY_EDGE_ROW_13_Left_37
*1201 PHY_EDGE_ROW_14_Left_38
*1202 PHY_EDGE_ROW_15_Left_39
*1203 PHY_EDGE_ROW_16_Left_40
*1204 PHY_EDGE_ROW_17_Left_41
*1205 PHY_EDGE_ROW_18_Left_42
*1206 PHY_EDGE_ROW_19_Left_43
*1207 PHY_EDGE_ROW_20_Left_44
*1208 PHY_EDGE_ROW_21_Left_45
*1209 PHY_EDGE_ROW_22_Left_46
*1210 PHY_EDGE_ROW_23_Left_47
*1211 input18
*1212 input19
*1213 input20
*1214 input21
*1215 input22
*1216 input23
*1217 input24
*1218 input25
*1219 input26
*1220 input27
*1221 input28
*1222 input29
*1223 input30
*1224 input31
*1225 input32
*1226 input33
*1227 input34
*1228 input35
*1229 output36
*1230 output37
*1231 output38
*1232 output39
*1233 output40
*1234 output41
*1235 output42
*1236 output43
*1237 output44
*1238 output45
*1239 output46
*1240 output47
*1241 output48
*1242 output49
*1243 output50
*1244 output51
*1245 output52
*1246 output53
*1247 clkbuf_0_clk
*1248 place55
*1249 place56
*1250 clkbuf_2_0__f_clk
*1251 clkbuf_2_1__f_clk
*1252 clkbuf_2_2__f_clk
*1253 clkbuf_2_3__f_clk
*1254 clkload0
*1255 clkload1
*1256 clkload2
*1257 rebuffer57
*1258 rebuffer58
*1259 rebuffer59
*1260 rebuffer60
*1261 rebuffer61
*1262 rebuffer62
*1263 rebuffer63
*1264 rebuffer64
*1265 rebuffer65
*1266 rebuffer66
*1267 rebuffer67
*1268 rebuffer68
*1269 rebuffer69
*1270 rebuffer70
*1271 rebuffer71
*1272 rebuffer72
*1273 rebuffer73
*1274 rebuffer74
*1275 rebuffer75
*1276 rebuffer76
*1277 rebuffer77
*1278 rebuffer78
*1279 rebuffer79
*1280 rebuffer80
*1281 rebuffer81
*1282 rebuffer82
*1283 rebuffer83
*1284 rebuffer84
*1285 rebuffer85
*1286 rebuffer86
*1287 rebuffer87
*1288 rebuffer97
*1289 rebuffer104
*1290 rebuffer105
*1291 rebuffer106
*1292 rebuffer110
*1293 rebuffer111
*1294 rebuffer114
*1295 rebuffer115
*1296 rebuffer116
*1297 rebuffer117
*1298 rebuffer126
*1299 rebuffer127
*1300 rebuffer128
*1301 FILLER_0_1
*1302 FILLER_0_17
*1303 FILLER_0_42
*1304 FILLER_0_56
*1305 FILLER_0_89
*1306 FILLER_0_93
*1307 FILLER_0_95
*1308 FILLER_0_99
*1309 FILLER_0_108
*1310 FILLER_0_122
*1311 FILLER_0_124
*1312 FILLER_0_129
*1313 FILLER_0_139
*1314 FILLER_0_147
*1315 FILLER_0_154
*1316 FILLER_0_170
*1317 FILLER_0_174
*1318 FILLER_0_176
*1319 FILLER_1_1
*1320 FILLER_1_17
*1321 FILLER_1_25
*1322 FILLER_1_29
*1323 FILLER_1_47
*1324 FILLER_1_51
*1325 FILLER_1_73
*1326 FILLER_1_78
*1327 FILLER_1_87
*1328 FILLER_1_92
*1329 FILLER_1_102
*1330 FILLER_1_123
*1331 FILLER_1_131
*1332 FILLER_1_157
*1333 FILLER_1_173
*1334 FILLER_2_1
*1335 FILLER_2_9
*1336 FILLER_2_13
*1337 FILLER_2_21
*1338 FILLER_2_36
*1339 FILLER_2_41
*1340 FILLER_2_43
*1341 FILLER_2_47
*1342 FILLER_2_55
*1343 FILLER_2_64
*1344 FILLER_2_74
*1345 FILLER_2_81
*1346 FILLER_2_111
*1347 FILLER_2_143
*1348 FILLER_2_160
*1349 FILLER_2_176
*1350 FILLER_3_1
*1351 FILLER_3_9
*1352 FILLER_3_11
*1353 FILLER_3_32
*1354 FILLER_3_40
*1355 FILLER_3_42
*1356 FILLER_3_48
*1357 FILLER_3_59
*1358 FILLER_3_68
*1359 FILLER_3_88
*1360 FILLER_3_93
*1361 FILLER_3_145
*1362 FILLER_3_147
*1363 FILLER_3_165
*1364 FILLER_3_173
*1365 FILLER_4_1
*1366 FILLER_4_6
*1367 FILLER_4_32
*1368 FILLER_4_40
*1369 FILLER_4_42
*1370 FILLER_4_48
*1371 FILLER_4_67
*1372 FILLER_4_100
*1373 FILLER_4_136
*1374 FILLER_4_166
*1375 FILLER_4_174
*1376 FILLER_4_176
*1377 FILLER_5_1
*1378 FILLER_5_3
*1379 FILLER_5_14
*1380 FILLER_5_22
*1381 FILLER_5_48
*1382 FILLER_5_60
*1383 FILLER_5_89
*1384 FILLER_5_129
*1385 FILLER_5_142
*1386 FILLER_5_154
*1387 FILLER_5_175
*1388 FILLER_6_1
*1389 FILLER_6_5
*1390 FILLER_6_31
*1391 FILLER_6_40
*1392 FILLER_6_42
*1393 FILLER_6_59
*1394 FILLER_6_83
*1395 FILLER_6_103
*1396 FILLER_6_163
*1397 FILLER_6_171
*1398 FILLER_6_175
*1399 FILLER_7_4
*1400 FILLER_7_6
*1401 FILLER_7_14
*1402 FILLER_7_19
*1403 FILLER_7_27
*1404 FILLER_7_29
*1405 FILLER_7_59
*1406 FILLER_7_73
*1407 FILLER_7_95
*1408 FILLER_7_121
*1409 FILLER_7_128
*1410 FILLER_7_143
*1411 FILLER_7_173
*1412 FILLER_8_21
*1413 FILLER_8_25
*1414 FILLER_8_34
*1415 FILLER_8_47
*1416 FILLER_8_57
*1417 FILLER_8_61
*1418 FILLER_8_83
*1419 FILLER_8_147
*1420 FILLER_8_171
*1421 FILLER_8_175
*1422 FILLER_9_1
*1423 FILLER_9_5
*1424 FILLER_9_7
*1425 FILLER_9_14
*1426 FILLER_9_18
*1427 FILLER_9_20
*1428 FILLER_9_24
*1429 FILLER_9_28
*1430 FILLER_9_35
*1431 FILLER_9_37
*1432 FILLER_9_48
*1433 FILLER_9_54
*1434 FILLER_9_58
*1435 FILLER_9_74
*1436 FILLER_9_76
*1437 FILLER_9_86
*1438 FILLER_9_96
*1439 FILLER_9_126
*1440 FILLER_9_167
*1441 FILLER_9_172
*1442 FILLER_9_176
*1443 FILLER_10_4
*1444 FILLER_10_9
*1445 FILLER_10_17
*1446 FILLER_10_52
*1447 FILLER_10_66
*1448 FILLER_10_70
*1449 FILLER_10_78
*1450 FILLER_10_103
*1451 FILLER_10_128
*1452 FILLER_10_130
*1453 FILLER_10_159
*1454 FILLER_10_175
*1455 FILLER_11_33
*1456 FILLER_11_37
*1457 FILLER_11_51
*1458 FILLER_11_55
*1459 FILLER_11_62
*1460 FILLER_11_106
*1461 FILLER_11_126
*1462 FILLER_11_142
*1463 FILLER_11_149
*1464 FILLER_11_165
*1465 FILLER_11_173
*1466 FILLER_12_1
*1467 FILLER_12_9
*1468 FILLER_12_17
*1469 FILLER_12_45
*1470 FILLER_12_47
*1471 FILLER_12_96
*1472 FILLER_12_127
*1473 FILLER_12_138
*1474 FILLER_12_147
*1475 FILLER_12_151
*1476 FILLER_12_156
*1477 FILLER_12_172
*1478 FILLER_12_176
*1479 FILLER_13_1
*1480 FILLER_13_6
*1481 FILLER_13_8
*1482 FILLER_13_36
*1483 FILLER_13_57
*1484 FILLER_13_65
*1485 FILLER_13_74
*1486 FILLER_13_96
*1487 FILLER_13_123
*1488 FILLER_13_135
*1489 FILLER_13_140
*1490 FILLER_13_144
*1491 FILLER_13_146
*1492 FILLER_13_155
*1493 FILLER_13_164
*1494 FILLER_13_169
*1495 FILLER_13_173
*1496 FILLER_14_1
*1497 FILLER_14_17
*1498 FILLER_14_25
*1499 FILLER_14_29
*1500 FILLER_14_34
*1501 FILLER_14_43
*1502 FILLER_14_53
*1503 FILLER_14_72
*1504 FILLER_14_76
*1505 FILLER_14_78
*1506 FILLER_14_91
*1507 FILLER_14_105
*1508 FILLER_14_134
*1509 FILLER_14_174
*1510 FILLER_14_176
*1511 FILLER_15_1
*1512 FILLER_15_19
*1513 FILLER_15_37
*1514 FILLER_15_62
*1515 FILLER_15_81
*1516 FILLER_15_87
*1517 FILLER_15_154
*1518 FILLER_15_156
*1519 FILLER_15_160
*1520 FILLER_15_162
*1521 FILLER_15_170
*1522 FILLER_16_4
*1523 FILLER_16_8
*1524 FILLER_16_14
*1525 FILLER_16_22
*1526 FILLER_16_26
*1527 FILLER_16_56
*1528 FILLER_16_69
*1529 FILLER_16_81
*1530 FILLER_16_95
*1531 FILLER_16_122
*1532 FILLER_16_145
*1533 FILLER_16_149
*1534 FILLER_16_173
*1535 FILLER_17_11
*1536 FILLER_17_17
*1537 FILLER_17_24
*1538 FILLER_17_52
*1539 FILLER_17_63
*1540 FILLER_17_72
*1541 FILLER_17_78
*1542 FILLER_17_81
*1543 FILLER_17_85
*1544 FILLER_17_90
*1545 FILLER_17_93
*1546 FILLER_17_103
*1547 FILLER_17_115
*1548 FILLER_17_133
*1549 FILLER_17_140
*1550 FILLER_17_144
*1551 FILLER_17_150
*1552 FILLER_17_166
*1553 FILLER_17_174
*1554 FILLER_17_176
*1555 FILLER_18_27
*1556 FILLER_18_29
*1557 FILLER_18_48
*1558 FILLER_18_83
*1559 FILLER_18_90
*1560 FILLER_18_94
*1561 FILLER_18_105
*1562 FILLER_18_114
*1563 FILLER_18_144
*1564 FILLER_18_163
*1565 FILLER_18_171
*1566 FILLER_18_176
*1567 FILLER_19_1
*1568 FILLER_19_25
*1569 FILLER_19_33
*1570 FILLER_19_60
*1571 FILLER_19_93
*1572 FILLER_19_110
*1573 FILLER_19_136
*1574 FILLER_19_174
*1575 FILLER_19_176
*1576 FILLER_20_1
*1577 FILLER_20_9
*1578 FILLER_20_35
*1579 FILLER_20_51
*1580 FILLER_20_74
*1581 FILLER_20_106
*1582 FILLER_20_116
*1583 FILLER_20_159
*1584 FILLER_20_175
*1585 FILLER_21_1
*1586 FILLER_21_17
*1587 FILLER_21_25
*1588 FILLER_21_29
*1589 FILLER_21_31
*1590 FILLER_21_39
*1591 FILLER_21_47
*1592 FILLER_21_90
*1593 FILLER_21_94
*1594 FILLER_21_109
*1595 FILLER_21_127
*1596 FILLER_21_137
*1597 FILLER_21_141
*1598 FILLER_21_147
*1599 FILLER_21_163
*1600 FILLER_21_171
*1601 FILLER_21_175
*1602 FILLER_22_1
*1603 FILLER_22_33
*1604 FILLER_22_49
*1605 FILLER_22_54
*1606 FILLER_22_62
*1607 FILLER_22_87
*1608 FILLER_22_120
*1609 FILLER_22_126
*1610 FILLER_22_133
*1611 FILLER_22_141
*1612 FILLER_22_143
*1613 FILLER_22_147
*1614 FILLER_22_163
*1615 FILLER_22_171
*1616 FILLER_22_175
*1617 FILLER_23_1
*1618 FILLER_23_17
*1619 FILLER_23_25
*1620 FILLER_23_27
*1621 FILLER_23_31
*1622 FILLER_23_47
*1623 FILLER_23_49
*1624 FILLER_23_53
*1625 FILLER_23_75
*1626 FILLER_23_77
*1627 FILLER_23_85
*1628 FILLER_23_93
*1629 FILLER_23_97
*1630 FILLER_23_107
*1631 FILLER_23_111
*1632 FILLER_23_119
*1633 FILLER_23_135
*1634 FILLER_23_139
*1635 FILLER_23_144
*1636 FILLER_23_176

*PORTS
clk I
req_msg[0] I
req_msg[10] I
req_msg[11] I
req_msg[12] I
req_msg[13] I
req_msg[14] I
req_msg[15] I
req_msg[16] I
req_msg[17] I
req_msg[18] I
req_msg[19] I
req_msg[1] I
req_msg[20] I
req_msg[21] I
req_msg[22] I
req_msg[23] I
req_msg[24] I
req_msg[25] I
req_msg[26] I
req_msg[27] I
req_msg[28] I
req_msg[29] I
req_msg[2] I
req_msg[30] I
req_msg[31] I
req_msg[3] I
req_msg[4] I
req_msg[5] I
req_msg[6] I
req_msg[7] I
req_msg[8] I
req_msg[9] I
req_rdy O
req_val I
reset I
resp_msg[0] O
resp_msg[10] O
resp_msg[11] O
resp_msg[12] O
resp_msg[13] O
resp_msg[14] O
resp_msg[15] O
resp_msg[1] O
resp_msg[2] O
resp_msg[3] O
resp_msg[4] O
resp_msg[5] O
resp_msg[6] O
resp_msg[7] O
resp_msg[8] O
resp_msg[9] O
resp_rdy I
resp_val O

*D_NET *1 0.000279479
*CONN
*I *1128:D I *D DFF_X2
*I *700:ZN O *D OAI21_X1
*CAP
1 *1128:D 0.000138363
2 *700:ZN 0.000138363
3 *1128:D *666:A2 2.75346e-06
4 *1128:D *613:14 0
*RES
1 *700:ZN *1128:D 32.8214 
*END

*D_NET *2 0.000162955
*CONN
*I *1129:D I *D DFF_X1
*I *698:ZN O *D OAI21_X1
*CAP
1 *1129:D 7.9446e-05
2 *698:ZN 7.9446e-05
3 *1129:D *1129:CK 4.06335e-06
*RES
1 *698:ZN *1129:D 27.3929 
*END

*D_NET *3 0.00010992
*CONN
*I *1130:D I *D DFF_X1
*I *692:ZN O *D OAI21_X1
*CAP
1 *1130:D 4.91315e-05
2 *692:ZN 4.91315e-05
3 *1130:D *666:A2 9.26031e-06
4 *1130:D *66:12 2.39679e-06
*RES
1 *692:ZN *1130:D 15.25 
*END

*D_NET *4 0.00373771
*CONN
*I *994:A3 I *D NAND3_X1
*I *1001:A3 I *D NAND3_X1
*I *987:A3 I *D NAND3_X1
*I *973:A3 I *D NAND3_X1
*I *980:A3 I *D NAND3_X1
*I *1062:A2 I *D NAND2_X4
*I *952:A3 I *D NAND4_X4
*I *695:A3 I *D AND3_X1
*I *1128:QN O *D DFF_X2
*CAP
1 *994:A3 0
2 *1001:A3 2.72001e-05
3 *987:A3 9.04352e-06
4 *973:A3 2.19063e-05
5 *980:A3 4.64021e-06
6 *1062:A2 6.84078e-06
7 *952:A3 5.65394e-05
8 *695:A3 0.000130845
9 *1128:QN 2.50423e-05
10 *4:96 0.000140383
11 *4:79 0.000222431
12 *4:66 0.000303055
13 *4:49 0.000230059
14 *4:38 0.000136144
15 *4:25 0.00021239
16 *4:6 0.00022691
17 *695:A3 *695:A1 2.25089e-06
18 *695:A3 *695:A2 2.39679e-06
19 *695:A3 *952:A1 9.57492e-07
20 *695:A3 *955:A1 0
21 *695:A3 *969:B2 0.00010687
22 *695:A3 *63:14 1.02897e-05
23 *695:A3 *307:14 0
24 *695:A3 *487:38 0
25 *695:A3 *487:47 0
26 *695:A3 *572:8 3.02372e-05
27 *952:A3 *949:A2 0
28 *952:A3 *971:A1 6.59145e-05
29 *952:A3 *971:A3 0
30 *952:A3 *615:82 0
31 *973:A3 *974:A1 8.43215e-07
32 *973:A3 *975:A2 3.10376e-06
33 *973:A3 *213:8 0
34 *973:A3 *325:16 2.52965e-06
35 *980:A3 *972:A 7.72537e-06
36 *980:A3 *980:A2 2.75346e-06
37 *980:A3 *325:6 1.87369e-06
38 *987:A3 *674:A 9.76549e-06
39 *987:A3 *989:A2 3.19164e-07
40 *1001:A3 *673:A 2.75788e-05
41 *1001:A3 *944:A1 3.2873e-05
42 *1001:A3 *1001:A1 7.95198e-06
43 *1001:A3 *1001:A2 2.75346e-06
44 *1001:A3 *270:16 5.90412e-06
45 *1062:A2 *830:A 0
46 *1062:A2 *310:189 3.09143e-06
47 *1062:A2 *615:82 0
48 *4:6 *969:B2 3.13612e-05
49 *4:6 *613:10 0
50 *4:25 *958:A1 0
51 *4:25 *310:189 0
52 *4:25 *613:10 9.46688e-05
53 *4:38 *310:189 0
54 *4:38 *324:8 1.71283e-05
55 *4:49 *688:A1 0
56 *4:49 *972:A 1.19024e-05
57 *4:49 *310:189 1.34913e-06
58 *4:49 *324:8 7.4751e-06
59 *4:49 *401:297 1.08375e-05
60 *4:66 *974:A3 0.000375881
61 *4:66 *980:A2 2.37916e-06
62 *4:66 *1077:A 4.01917e-05
63 *4:66 *304:18 2.07772e-05
64 *4:66 *325:16 9.3811e-05
65 *4:66 *401:297 0.000343283
66 *4:66 *401:316 3.012e-06
67 *4:79 *974:A1 0
68 *4:79 *1077:A 8.75656e-06
69 *4:79 *1084:B1 4.31269e-05
70 *4:79 *310:235 0.000105981
71 *4:79 *325:16 1.2453e-05
72 *4:79 *325:29 4.20317e-05
73 *4:79 *617:25 2.37916e-06
74 *4:96 *915:A2 1.08378e-05
75 *4:96 *1084:B1 7.7588e-05
76 *4:96 *1152:CK 1.74934e-05
77 *4:96 *270:16 3.08889e-05
78 *4:96 *310:235 0.000199524
79 *4:96 *325:54 2.43455e-05
80 *4:96 *509:28 4.55006e-06
81 *4:96 *613:537 2.2287e-05
*RES
1 *1128:QN *4:6 8.25 
2 *4:6 *695:A3 31 
3 *4:6 *4:25 13.3929 
4 *4:25 *952:A3 17.1786 
5 *4:25 *4:38 9.07143 
6 *4:38 *1062:A2 10.75 
7 *4:38 *4:49 5.67857 
8 *4:49 *980:A3 10.75 
9 *4:49 *4:66 33.7143 
10 *4:66 *973:A3 12.1786 
11 *4:66 *4:79 15.1786 
12 *4:79 *987:A3 11 
13 *4:79 *4:96 23.7857 
14 *4:96 *1001:A3 9.75 
15 *4:96 *994:A3 5 
*END

*D_NET *5 0.000105445
*CONN
*I *1131:D I *D DFF_X1
*I *964:ZN O *D NAND2_X1
*CAP
1 *1131:D 3.65693e-05
2 *964:ZN 3.65693e-05
3 *1131:D *957:A1 0
4 *1131:D *960:A2 6.38328e-07
5 *1131:D *964:A1 2.19751e-05
6 *1131:D *1102:B2 1.43238e-06
7 *1131:D *616:33 8.26038e-06
*RES
1 *964:ZN *1131:D 14.8929 
*END

*D_NET *6 0.000222039
*CONN
*I *1132:D I *D DFF_X1
*I *970:ZN O *D NAND2_X1
*CAP
1 *1132:D 7.19286e-05
2 *970:ZN 7.19286e-05
3 *1132:D *968:A1 3.45492e-05
4 *1132:D *970:A2 2.82352e-05
5 *1132:D *1061:A1 0
6 *1132:D *310:30 1.91498e-06
7 *1132:D *613:53 1.34822e-05
*RES
1 *970:ZN *1132:D 20.0357 
*END

*D_NET *7 0.000320004
*CONN
*I *1133:D I *D DFF_X1
*I *979:ZN O *D NAND2_X1
*CAP
1 *1133:D 9.3081e-05
2 *979:ZN 9.3081e-05
3 *1133:D *849:A 1.33435e-05
4 *1133:D *313:33 1.49014e-05
5 *1133:D *613:467 0.000105597
*RES
1 *979:ZN *1133:D 32.4643 
*END

*D_NET *8 0.000129341
*CONN
*I *1134:D I *D DFF_X1
*I *986:ZN O *D NAND2_X1
*CAP
1 *1134:D 5.69695e-05
2 *986:ZN 5.69695e-05
3 *1134:D *986:A1 8.40663e-06
4 *1134:D *986:A2 6.99525e-06
*RES
1 *986:ZN *1134:D 26.0357 
*END

*D_NET *9 0.000235358
*CONN
*I *1135:D I *D DFF_X1
*I *993:ZN O *D NAND2_X1
*CAP
1 *1135:D 8.20471e-05
2 *993:ZN 8.20471e-05
3 *1135:D *976:A2 0
4 *1135:D *992:B1 4.69702e-07
5 *1135:D *992:B2 3.91745e-05
6 *1135:D *993:A1 1.76665e-06
7 *1135:D *993:A2 1.10196e-05
8 *1135:D *1075:A 0
9 *1135:D *1084:B2 7.99084e-06
10 *1135:D *1135:CK 7.16188e-07
11 *1135:D *1232:A 1.01265e-05
*RES
1 *993:ZN *1135:D 20.1071 
*END

*D_NET *10 0.000105709
*CONN