*SPEF "ieee 1481-1999"
*DESIGN "gcd"
*DATE "22:22:51 Saturday February 14, 2026"
*VENDOR "The OpenROAD Project"
*PROGRAM "OpenROAD"
*VERSION "26Q1-951-g6975124cf2"
*DESIGN_FLOW "NAME_SCOPE LOCAL" "PIN_CAP NONE"
*DIVIDER /
*DELIMITER :
*BUS_DELIMITER []
*T_UNIT 1 NS
*C_UNIT 1 PF
*R_UNIT 1 OHM
*L_UNIT 1 HENRY

*NAME_MAP
*1 _000_
*2 _001_
*3 _002_
*4 _003_
*5 _004_
*6 _005_
*7 _006_
*8 _007_
*9 _008_
*10 _009_
*11 _010_
*12 _011_
*13 _012_
*14 _013_
*15 _014_
*16 _015_
*17 _016_
*18 _017_
*19 _018_
*20 _019_
*21 _020_
*22 _021_
*23 _022_
*24 _023_
*25 _024_
*26 _025_
*27 _026_
*28 _027_
*29 _028_
*30 _029_
*31 _030_
*32 _031_
*33 _032_
*34 _033_
*35 _034_
*36 _035_
*37 resp_msg[15]
*38 resp_msg[14]
*39 resp_msg[13]
*40 resp_msg[12]
*41 resp_msg[11]
*42 resp_msg[10]
*43 resp_msg[0]
*44 _043_
*45 req_rdy
*46 resp_rdy
*47 reset
*48 req_val
*49 _048_
*50 req_msg[9]
*51 req_msg[8]
*52 req_msg[7]
*53 req_msg[6]
*54 _053_
*55 req_msg[5]
*56 req_msg[4]
*57 req_msg[3]
*58 _057_
*59 _058_
*60 req_msg[31]
*61 req_msg[30]
*62 _061_
*63 _062_
*64 req_msg[2]
*65 req_msg[29]
*66 _065_
*67 _066_
*68 _067_
*69 _068_
*70 req_msg[28]
*71 req_msg[27]
*72 req_msg[26]
*73 _072_
*74 _073_
*75 req_msg[25]
*76 _075_
*77 _076_
*78 _077_
*79 _078_
*80 _079_
*81 req_msg[24]
*82 _081_
*83 req_msg[23]
*84 _083_
*85 _084_
*86 _085_
*87 _086_
*88 _087_
*89 _088_
*90 _089_
*91 _090_
*92 _091_
*93 _092_
*94 req_msg[22]
*95 _094_
*96 req_msg[21]
*97 _096_
*98 _097_
*99 _098_
*100 _099_
*101 _100_
*102 _101_
*103 _102_
*104 _103_
*105 _104_
*106 _105_
*107 _106_
*108 _107_
*109 _108_
*110 _109_
*111 _110_
*112 _111_
*113 _112_
*114 _113_
*115 _114_
*116 _115_
*117 _116_
*118 _117_
*119 _118_
*120 _119_
*121 _120_
*122 req_msg[20]
*123 _122_
*124 _123_
*125 _124_
*126 _125_
*127 _126_
*128 _127_
*129 _128_
*130 _129_
*131 _130_
*132 req_msg[1]
*133 _132_
*134 _133_
*135 _134_
*136 _135_
*137 _136_
*138 _137_
*139 _138_
*140 _139_
*141 req_msg[19]
*142 _141_
*143 _142_
*144 _143_
*145 _144_
*146 _145_
*147 _146_
*148 _147_
*149 _148_
*150 _149_
*151 _150_
*152 _151_
*153 _152_
*154 _153_
*155 _154_
*156 _155_
*157 _156_
*158 _157_
*159 req_msg[18]
*160 _159_
*161 req_msg[17]
*162 _161_
*163 _162_
*164 _163_
*165 _164_
*166 _165_
*167 _166_
*168 _167_
*169 _168_
*170 _169_
*171 _170_
*172 _171_
*173 _172_
*174 _173_
*175 _174_
*176 _175_
*177 _176_
*178 _177_
*179 _178_
*180 _179_
*181 _180_
*182 req_msg[16]
*183 _182_
*184 _183_
*185 _184_
*186 _185_
*187 _186_
*188 _187_
*189 _188_
*190 _189_
*191 _190_
*192 _191_
*193 _192_
*194 _193_
*195 _194_
*196 _195_
*197 _196_
*198 _197_
*199 _198_
*200 req_msg[15]
*201 _200_
*202 _201_
*203 _202_
*204 _203_
*205 _204_
*206 _205_
*207 _206_
*208 _207_
*209 _208_
*210 _209_
*211 _210_
*212 _211_
*213 _212_
*214 _213_
*215 _214_
*216 _215_
*217 _216_
*218 _217_
*219 _218_
*220 req_msg[14]
*221 _220_
*222 _221_
*223 _222_
*224 _223_
*225 _224_
*226 _225_
*227 _226_
*228 _227_
*229 _228_
*230 _229_
*231 _230_
*232 _231_
*233 _232_
*234 _233_
*235 _234_
*236 _235_
*237 _236_
*238 _237_
*239 _238_
*240 req_msg[13]
*241 req_msg[12]
*242 req_msg[11]
*243 _242_
*244 _243_
*245 _244_
*246 _245_
*247 _246_
*248 _247_
*249 _248_
*250 _249_
*251 _250_
*252 req_msg[10]
*253 _252_
*254 _253_
*255 _254_
*256 _255_
*257 _256_
*258 _257_
*259 _258_
*260 _259_
*261 _260_
*262 _261_
*263 _262_
*264 _263_
*265 _264_
*266 _265_
*267 _266_
*268 _267_
*269 _268_
*270 _269_
*271 _270_
*272 _271_
*273 _272_
*274 _273_
*275 _274_
*276 _275_
*277 _276_
*278 _277_
*279 _278_
*280 _279_
*281 _280_
*282 _281_
*283 _282_
*284 _283_
*285 _284_
*286 _285_
*287 _286_
*288 _287_
*289 _288_
*290 _289_
*291 _290_
*292 _291_
*293 _292_
*294 _293_
*295 _294_
*296 _295_
*297 _296_
*298 _297_
*299 _298_
*300 req_msg[0]
*301 _300_
*302 _301_
*303 _302_
*304 _303_
*305 _304_
*306 _305_
*307 _306_
*308 _307_
*309 _308_
*310 _309_
*311 _310_
*312 _311_
*313 _312_
*314 _313_
*315 _314_
*316 _315_
*317 _316_
*318 _317_
*319 _318_
*320 _319_
*321 _320_
*322 _321_
*323 _322_
*324 _323_
*325 _324_
*326 _325_
*327 _326_
*328 _327_
*329 _328_
*330 _329_
*331 _330_
*332 _331_
*333 _332_
*334 _333_
*335 _334_
*336 _335_
*337 _336_
*338 _337_
*339 _338_
*340 _339_
*341 _340_
*342 _341_
*343 _342_
*344 _343_
*345 _344_
*346 _345_
*347 _346_
*348 _347_
*349 _348_
*350 clk
*351 ctrl\.state\.out\[1\]
*352 ctrl\.state\.out\[2\]
*353 dpath\.a_lt_b\$in0\[0\]
*354 dpath\.a_lt_b\$in0\[10\]
*355 dpath\.a_lt_b\$in0\[11\]
*356 dpath\.a_lt_b\$in0\[12\]
*357 dpath\.a_lt_b\$in0\[13\]
*358 dpath\.a_lt_b\$in0\[14\]
*359 dpath\.a_lt_b\$in0\[15\]
*360 dpath\.a_lt_b\$in0\[1\]
*361 dpath\.a_lt_b\$in0\[2\]
*362 dpath\.a_lt_b\$in0\[3\]
*363 dpath\.a_lt_b\$in0\[4\]
*364 dpath\.a_lt_b\$in0\[5\]
*365 dpath\.a_lt_b\$in0\[6\]
*366 dpath\.a_lt_b\$in0\[7\]
*367 dpath\.a_lt_b\$in0\[8\]
*368 dpath\.a_lt_b\$in0\[9\]
*369 dpath\.a_lt_b\$in1\[0\]
*370 dpath\.a_lt_b\$in1\[10\]
*371 dpath\.a_lt_b\$in1\[11\]
*372 dpath\.a_lt_b\$in1\[12\]
*373 dpath\.a_lt_b\$in1\[13\]
*374 dpath\.a_lt_b\$in1\[14\]
*375 dpath\.a_lt_b\$in1\[15\]
*376 dpath\.a_lt_b\$in1\[1\]
*377 dpath\.a_lt_b\$in1\[2\]
*378 dpath\.a_lt_b\$in1\[3\]
*379 dpath\.a_lt_b\$in1\[4\]
*380 dpath\.a_lt_b\$in1\[5\]
*381 dpath\.a_lt_b\$in1\[6\]
*382 dpath\.a_lt_b\$in1\[7\]
*383 dpath\.a_lt_b\$in1\[8\]
*384 dpath\.a_lt_b\$in1\[9\]
*385 net1
*386 net2
*387 net3
*388 net4
*389 net5
*390 net6
*391 net7
*392 net8
*393 net9
*394 net10
*395 net11
*396 net12
*397 net13
*398 net14
*399 net15
*400 net16
*401 net17
*402 net18
*403 net19
*404 net20
*405 net21
*406 net22
*407 net23
*408 net24
*409 net25
*410 net26
*411 net27
*412 net28
*413 net29
*414 net30
*415 net31
*416 net32
*417 net36
*418 net33
*419 net34
*420 net37
*421 net38
*422 net39
*423 net40
*424 net41
*425 net42
*426 net43
*427 net44
*428 net45
*429 net46
*430 net47
*431 net48
*432 net49
*433 net50
*434 net51
*435 net52
*436 net35
*437 net53
*440 resp_msg[1]
*441 resp_msg[2]
*442 resp_msg[3]
*443 resp_msg[4]
*444 resp_msg[5]
*445 resp_msg[6]
*446 resp_msg[7]
*447 resp_msg[8]
*448 resp_msg[9]
*449 resp_val
*450 net336
*451 net276
*452 net275
*453 net165
*454 net166
*455 net167
*456 net268
*457 net267
*458 net168
*459 net404
*460 net170
*461 net169
*462 net202
*463 net171
*464 net172
*465 net173
*466 net201
*467 net174
*468 net175
*469 net178
*470 net176
*471 net177
*472 net392
*473 net180
*474 net520
*475 net182
*476 net185
*477 net183
*478 net184
*479 net198
*480 net186
*481 net187
*482 net196
*483 net189
*484 net188
*485 net195
*486 net193
*487 net197
*488 net190
*489 net191
*490 net192
*491 net194
*492 net199
*493 net200
*494 net204
*495 net203
*496 net212
*497 net205
*498 net206
*499 net207
*500 net208
*501 net209
*502 net210
*503 net211
*504 net216
*505 net264
*506 net213
*507 net214
*508 net215
*509 clknet_2_3__leaf_clk
*510 net229
*511 net217
*512 net218
*513 net219
*514 net220
*515 net221
*516 net222
*517 net223
*518 net228
*519 net224
*520 net225
*521 net226
*522 net227
*523 net237
*524 net230
*525 net231
*526 net232
*527 net233
*528 net234
*529 net235
*530 net236
*531 clknet_2_2__leaf_clk
*532 net238
*533 net240
*534 net239
*535 net241
*536 net242
*537 net243
*538 net244
*539 net255
*540 net253
*541 net245
*542 net246
*543 net247
*544 net248
*545 net249
*546 net250
*547 net251
*548 net252
*549 net254
*550 net257
*551 net256
*552 net258
*553 net259
*554 clknet_2_1__leaf_clk
*555 net260
*556 net261
*557 clknet_2_0__leaf_clk
*558 net262
*559 net263
*560 clknet_0_clk
*561 net402
*562 net403
*563 net487
*564 net488
*565 net489
*566 net490
*567 net535
*568 net536
*569 net537
*570 net552
*571 output43
*572 output42
*573 output41
*574 output40
*575 output39
*576 output38
*577 output37
*578 _356_
*579 output36
*580 input35
*581 input34
*582 input33
*583 _361_
*584 input32
*585 input31
*586 input30
*587 input29
*588 _366_
*589 input28
*590 input27
*591 input26
*592 _370_
*593 _371_
*594 input25
*595 input24
*596 _374_
*597 _375_
*598 _376_
*599 input23
*600 _378_
*601 input22
*602 _380_
*603 _381_
*604 _382_
*605 _383_
*606 _384_
*607 input21
*608 input20
*609 _387_
*610 input19
*611 _389_
*612 _390_
*613 _391_
*614 input18
*615 _393_
*616 _394_
*617 _395_
*618 _396_
*619 _397_
*620 _398_
*621 input17
*622 _400_
*623 _401_
*624 input16
*625 _403_
*626 _404_
*627 _405_
*628 _406_
*629 _407_
*630 _408_
*631 _409_
*632 _410_
*633 _411_
*634 _412_
*635 _413_
*636 input15
*637 _415_
*638 _416_
*639 input14
*640 _418_
*641 _419_
*642 _420_
*643 _421_
*644 _422_
*645 _423_
*646 _424_
*647 _425_
*648 _426_
*649 _427_
*650 _428_
*651 _429_
*652 _430_
*653 _431_
*654 _432_
*655 _433_
*656 _434_
*657 _435_
*658 _436_
*659 _437_
*660 _438_
*661 _439_
*662 _440_
*663 _441_
*664 _442_
*665 _443_
*666 _444_
*667 _445_
*668 input13
*669 _447_
*670 _448_
*671 _449_
*672 _450_
*673 _451_
*674 _452_
*675 _453_
*676 _454_
*677 _455_
*678 _456_
*679 _457_
*680 input12
*681 _459_
*682 _460_
*683 _461_
*684 _462_
*685 _463_
*686 _464_
*687 _465_
*688 _466_
*689 _467_
*690 input11
*691 _469_
*692 _470_
*693 _471_
*694 _472_
*695 _473_
*696 _474_
*697 _475_
*698 _476_
*699 _477_
*700 _478_
*701 _479_
*702 _480_
*703 _481_
*704 _482_
*705 _483_
*706 _484_
*707 _485_
*708 _486_
*709 input10
*710 _488_
*711 _489_
*712 input9
*713 _491_
*714 _492_
*715 _493_
*716 _494_
*717 _495_
*718 _496_
*719 _497_
*720 _498_
*721 _499_
*722 _500_
*723 _501_
*724 _502_
*725 _503_
*726 _504_
*727 _505_
*728 _506_
*729 _507_
*730 _508_
*731 _509_
*732 _510_
*733 _511_
*734 input8
*735 _513_
*736 _514_
*737 _515_
*738 _516_
*739 _517_
*740 _518_
*741 _519_
*742 _520_
*743 _521_
*744 _522_
*745 _523_
*746 _524_
*747 _525_
*748 _526_
*749 _527_
*750 _528_
*751 _529_
*752 _530_
*753 _531_
*754 input7
*755 _533_
*756 _534_
*757 _535_
*758 _536_
*759 _537_
*760 _538_
*761 _539_
*762 _540_
*763 _541_
*764 _542_
*765 _543_
*766 _544_
*767 _545_
*768 _546_
*769 _547_
*770 _548_
*771 _549_
*772 _550_
*773 _551_
*774 input6
*775 _553_
*776 _554_
*777 _555_
*778 _556_
*779 _557_
*780 _558_
*781 _559_
*782 _560_
*783 _561_
*784 _562_
*785 _563_
*786 _564_
*787 _565_
*788 _566_
*789 _567_
*790 _568_
*791 _569_
*792 _570_
*793 _571_
*794 _572_
*795 _573_
*796 input5
*797 input4
*798 input3
*799 _577_
*800 _578_
*801 _579_
*802 _580_
*803 _581_
*804 _582_
*805 _583_
*806 _584_
*807 _585_
*808 _586_
*809 _587_
*810 input2
*811 _589_
*812 _590_
*813 _591_
*814 _592_
*815 _593_
*816 _594_
*817 _595_
*818 _596_
*819 _597_
*820 _598_
*821 _599_
*822 _600_
*823 _601_
*824 _602_
*825 _603_
*826 _604_
*827 _605_
*828 _606_
*829 _607_
*830 _608_
*831 _609_
*832 _610_
*833 _611_
*834 _612_
*835 _613_
*836 _614_
*837 _615_
*838 _616_
*839 _617_
*840 _618_
*841 _619_
*842 _620_
*843 _621_
*844 _622_
*845 _623_
*846 _624_
*847 _625_
*848 _626_
*849 _627_
*850 _628_
*851 _629_
*852 _630_
*853 _631_
*854 _632_
*855 _633_
*856 _634_
*857 _635_
*858 _636_
*859 _637_
*860 _638_
*861 _639_
*862 _640_
*863 _641_
*864 _642_
*865 _643_
*866 _644_
*867 _645_
*868 _646_
*869 _647_
*870 input1
*871 _649_
*872 _650_
*873 _651_
*874 _652_
*875 _653_
*876 _654_
*877 _655_
*878 _656_
*879 _657_
*880 _658_
*881 _659_
*882 _660_
*883 _661_
*884 _662_
*885 _663_
*886 _664_
*887 _665_
*888 _666_
*889 _667_
*890 _668_
*891 _669_
*892 _670_
*893 _671_
*894 _672_
*895 _673_
*896 _674_
*897 _675_
*898 _676_
*899 _677_
*900 _678_
*901 _679_
*902 ctrl\.state\.out\[0\]\$_DFF_P_
*903 ctrl\.state\.out\[1\]\$_DFF_P_
*904 ctrl\.state\.out\[2\]\$_DFF_P_
*905 dpath\.a_reg\.out\[0\]\$_DFFE_PP_
*906 dpath\.a_reg\.out\[10\]\$_DFFE_PP_
*907 dpath\.a_reg\.out\[11\]\$_DFFE_PP_
*908 dpath\.a_reg\.out\[12\]\$_DFFE_PP_
*909 dpath\.a_reg\.out\[13\]\$_DFFE_PP_
*910 dpath\.a_reg\.out\[14\]\$_DFFE_PP_
*911 dpath\.a_reg\.out\[15\]\$_DFFE_PP_
*912 dpath\.a_reg\.out\[1\]\$_DFFE_PP_
*913 dpath\.a_reg\.out\[2\]\$_DFFE_PP_
*914 dpath\.a_reg\.out\[3\]\$_DFFE_PP_
*915 dpath\.a_reg\.out\[4\]\$_DFFE_PP_
*916 dpath\.a_reg\.out\[5\]\$_DFFE_PP_
*917 dpath\.a_reg\.out\[6\]\$_DFFE_PP_
*918 dpath\.a_reg\.out\[7\]\$_DFFE_PP_
*919 dpath\.a_reg\.out\[8\]\$_DFFE_PP_
*920 dpath\.a_reg\.out\[9\]\$_DFFE_PP_
*921 dpath\.b_reg\.out\[0\]\$_DFFE_PP_
*922 dpath\.b_reg\.out\[10\]\$_DFFE_PP_
*923 dpath\.b_reg\.out\[11\]\$_DFFE_PP_
*924 dpath\.b_reg\.out\[12\]\$_DFFE_PP_
*925 dpath\.b_reg\.out\[13\]\$_DFFE_PP_
*926 dpath\.b_reg\.out\[14\]\$_DFFE_PP_
*927 dpath\.b_reg\.out\[15\]\$_DFFE_PP_
*928 dpath\.b_reg\.out\[1\]\$_DFFE_PP_
*929 dpath\.b_reg\.out\[2\]\$_DFFE_PP_
*930 dpath\.b_reg\.out\[3\]\$_DFFE_PP_
*931 dpath\.b_reg\.out\[4\]\$_DFFE_PP_
*932 dpath\.b_reg\.out\[5\]\$_DFFE_PP_
*933 dpath\.b_reg\.out\[6\]\$_DFFE_PP_
*934 dpath\.b_reg\.out\[7\]\$_DFFE_PP_
*935 dpath\.b_reg\.out\[8\]\$_DFFE_PP_
*936 dpath\.b_reg\.out\[9\]\$_DFFE_PP_
*937 PHY_EDGE_ROW_0_Right_0
*938 PHY_EDGE_ROW_1_Right_1
*939 PHY_EDGE_ROW_2_Right_2
*940 PHY_EDGE_ROW_3_Right_3
*941 PHY_EDGE_ROW_4_Right_4
*942 PHY_EDGE_ROW_5_Right_5
*943 PHY_EDGE_ROW_6_Right_6
*944 PHY_EDGE_ROW_7_Right_7
*945 PHY_EDGE_ROW_8_Right_8
*946 PHY_EDGE_ROW_9_Right_9
*947 PHY_EDGE_ROW_10_Right_10
*948 PHY_EDGE_ROW_11_Right_11
*949 PHY_EDGE_ROW_12_Right_12
*950 PHY_EDGE_ROW_13_Right_13
*951 PHY_EDGE_ROW_14_Right_14
*952 PHY_EDGE_ROW_15_Right_15
*953 PHY_EDGE_ROW_16_Right_16
*954 PHY_EDGE_ROW_17_Right_17
*955 PHY_EDGE_ROW_18_Right_18
*956 PHY_EDGE_ROW_19_Right_19
*957 PHY_EDGE_ROW_20_Right_20
*958 PHY_EDGE_ROW_21_Right_21
*959 PHY_EDGE_ROW_0_Left_22
*960 PHY_EDGE_ROW_1_Left_23
*961 PHY_EDGE_ROW_2_Left_24
*962 PHY_EDGE_ROW_3_Left_25
*963 PHY_EDGE_ROW_4_Left_26
*964 PHY_EDGE_ROW_5_Left_27
*965 PHY_EDGE_ROW_6_Left_28
*966 PHY_EDGE_ROW_7_Left_29
*967 PHY_EDGE_ROW_8_Left_30
*968 PHY_EDGE_ROW_9_Left_31
*969 PHY_EDGE_ROW_10_Left_32
*970 PHY_EDGE_ROW_11_Left_33
*971 PHY_EDGE_ROW_12_Left_34
*972 PHY_EDGE_ROW_13_Left_35
*973 PHY_EDGE_ROW_14_Left_36
*974 PHY_EDGE_ROW_15_Left_37
*975 PHY_EDGE_ROW_16_Left_38
*976 PHY_EDGE_ROW_17_Left_39
*977 PHY_EDGE_ROW_18_Left_40
*978 PHY_EDGE_ROW_19_Left_41
*979 PHY_EDGE_ROW_20_Left_42
*980 PHY_EDGE_ROW_21_Left_43
*981 output44
*982 output45
*983 output46
*984 output47
*985 output48
*986 output49
*987 output50
*988 output51
*989 output52
*990 output53
*991 rebuffer276
*992 rebuffer275
*993 rebuffer268
*994 place165
*995 place166
*996 place167
*997 rebuffer267
*998 rebuffer404
*999 place168
*1000 rebuffer264
*1001 place170
*1002 place169
*1003 place202
*1004 place171
*1005 place172
*1006 place173
*1007 place201
*1008 place174
*1009 place175
*1010 place178
*1011 place176
*1012 place177
*1013 rebuffer392
*1014 place180
*1015 rebuffer520
*1016 place182
*1017 place185
*1018 place183
*1019 place184
*1020 place198
*1021 place186
*1022 place187
*1023 place196
*1024 place189
*1025 place188
*1026 place195
*1027 place193
*1028 place197
*1029 place190
*1030 place191
*1031 place192
*1032 place194
*1033 place199
*1034 place200
*1035 place204
*1036 place203
*1037 place212
*1038 place205
*1039 place206
*1040 place207
*1041 place208
*1042 place209
*1043 place210
*1044 place211
*1045 place216
*1046 clkload0
*1047 place213
*1048 place214
*1049 place215
*1050 clkbuf_2_3__f_clk
*1051 place229
*1052 place217
*1053 place218
*1054 place219
*1055 place220
*1056 place221
*1057 place222
*1058 place223
*1059 place228
*1060 place224
*1061 place225
*1062 place226
*1063 place227
*1064 place237
*1065 place230
*1066 place231
*1067 place232
*1068 place233
*1069 place234
*1070 place235
*1071 place236
*1072 clkbuf_2_2__f_clk
*1073 place238
*1074 place240
*1075 place239
*1076 place241
*1077 place242
*1078 place243
*1079 place244
*1080 place255
*1081 place253
*1082 place245
*1083 place246
*1084 place247
*1085 place248
*1086 place249
*1087 place250
*1088 place251
*1089 place252
*1090 place254
*1091 place257
*1092 place256
*1093 place258
*1094 place259
*1095 clkbuf_2_1__f_clk
*1096 place260
*1097 place261
*1098 clkbuf_2_0__f_clk
*1099 place262
*1100 place263
*1101 clkbuf_0_clk
*1102 rebuffer336
*1103 rebuffer402
*1104 rebuffer403
*1105 rebuffer487
*1106 rebuffer488
*1107 rebuffer489
*1108 rebuffer490
*1109 rebuffer535
*1110 rebuffer536
*1111 rebuffer537
*1112 rebuffer552
*1113 FILLER_0_1
*1114 FILLER_0_17
*1115 FILLER_0_25
*1116 FILLER_0_30
*1117 FILLER_0_38
*1118 FILLER_0_67
*1119 FILLER_0_75
*1120 FILLER_0_79
*1121 FILLER_0_84
*1122 FILLER_0_99
*1123 FILLER_0_103
*1124 FILLER_0_107
*1125 FILLER_0_115
*1126 FILLER_0_119
*1127 FILLER_0_151
*1128 FILLER_0_159
*1129 FILLER_0_163
*1130 FILLER_1_1
*1131 FILLER_1_17
*1132 FILLER_1_58
*1133 FILLER_1_96
*1134 FILLER_1_104
*1135 FILLER_1_132
*1136 FILLER_1_164
*1137 FILLER_2_1
*1138 FILLER_2_17
*1139 FILLER_2_38
*1140 FILLER_2_49
*1141 FILLER_2_101
*1142 FILLER_2_106
*1143 FILLER_2_110
*1144 FILLER_2_114
*1145 FILLER_2_121
*1146 FILLER_2_153
*1147 FILLER_2_161
*1148 FILLER_3_1
*1149 FILLER_3_17
*1150 FILLER_3_33
*1151 FILLER_3_37
*1152 FILLER_3_42
*1153 FILLER_3_44
*1154 FILLER_3_73
*1155 FILLER_3_102
*1156 FILLER_3_109
*1157 FILLER_3_111
*1158 FILLER_3_122
*1159 FILLER_3_129
*1160 FILLER_3_140
*1161 FILLER_3_148
*1162 FILLER_3_150
*1163 FILLER_3_154
*1164 FILLER_3_162
*1165 FILLER_3_164
*1166 FILLER_4_1
*1167 FILLER_4_9
*1168 FILLER_4_13
*1169 FILLER_4_15
*1170 FILLER_4_33
*1171 FILLER_4_40
*1172 FILLER_4_85
*1173 FILLER_4_98
*1174 FILLER_4_139
*1175 FILLER_4_164
*1176 FILLER_5_1
*1177 FILLER_5_3
*1178 FILLER_5_24
*1179 FILLER_5_29
*1180 FILLER_5_67
*1181 FILLER_5_69
*1182 FILLER_5_86
*1183 FILLER_5_90
*1184 FILLER_5_100
*1185 FILLER_5_115
*1186 FILLER_5_134
*1187 FILLER_5_142
*1188 FILLER_5_150
*1189 FILLER_5_154
*1190 FILLER_5_157
*1191 FILLER_5_159
*1192 FILLER_5_163
*1193 FILLER_6_1
*1194 FILLER_6_9
*1195 FILLER_6_15
*1196 FILLER_6_28
*1197 FILLER_6_36
*1198 FILLER_6_74
*1199 FILLER_6_76
*1200 FILLER_6_118
*1201 FILLER_6_152
*1202 FILLER_6_159
*1203 FILLER_6_164
*1204 FILLER_7_1
*1205 FILLER_7_17
*1206 FILLER_7_48
*1207 FILLER_7_54
*1208 FILLER_7_105
*1209 FILLER_7_163
*1210 FILLER_8_1
*1211 FILLER_8_16
*1212 FILLER_8_20
*1213 FILLER_8_43
*1214 FILLER_8_48
*1215 FILLER_8_60
*1216 FILLER_8_81
*1217 FILLER_8_105
*1218 FILLER_8_109
*1219 FILLER_8_120
*1220 FILLER_8_153
*1221 FILLER_8_161
*1222 FILLER_9_7
*1223 FILLER_9_59
*1224 FILLER_9_71
*1225 FILLER_9_77
*1226 FILLER_9_114
*1227 FILLER_9_119
*1228 FILLER_9_123
*1229 FILLER_9_141
*1230 FILLER_9_145
*1231 FILLER_9_149
*1232 FILLER_9_156
*1233 FILLER_9_160
*1234 FILLER_9_164
*1235 FILLER_10_11
*1236 FILLER_10_23
*1237 FILLER_10_55
*1238 FILLER_10_63
*1239 FILLER_10_65
*1240 FILLER_10_75
*1241 FILLER_10_116
*1242 FILLER_10_121
*1243 FILLER_10_128
*1244 FILLER_10_136
*1245 FILLER_10_144
*1246 FILLER_11_4
*1247 FILLER_11_8
*1248 FILLER_11_10
*1249 FILLER_11_40
*1250 FILLER_11_42
*1251 FILLER_11_96
*1252 FILLER_11_112
*1253 FILLER_11_127
*1254 FILLER_11_163
*1255 FILLER_12_7
*1256 FILLER_12_15
*1257 FILLER_12_17
*1258 FILLER_12_22
*1259 FILLER_12_53
*1260 FILLER_12_80
*1261 FILLER_12_89
*1262 FILLER_12_105
*1263 FILLER_12_141
*1264 FILLER_12_151
*1265 FILLER_12_153
*1266 FILLER_12_164
*1267 FILLER_13_1
*1268 FILLER_13_3
*1269 FILLER_13_24
*1270 FILLER_13_30
*1271 FILLER_13_32
*1272 FILLER_13_36
*1273 FILLER_13_40
*1274 FILLER_13_51
*1275 FILLER_13_55
*1276 FILLER_13_57
*1277 FILLER_13_84
*1278 FILLER_13_88
*1279 FILLER_13_99
*1280 FILLER_13_101
*1281 FILLER_13_113
*1282 FILLER_13_115
*1283 FILLER_13_135
*1284 FILLER_13_164
*1285 FILLER_14_1
*1286 FILLER_14_13
*1287 FILLER_14_62
*1288 FILLER_14_95
*1289 FILLER_14_105
*1290 FILLER_14_159
*1291 FILLER_14_164
*1292 FILLER_15_4
*1293 FILLER_15_6
*1294 FILLER_15_23
*1295 FILLER_15_38
*1296 FILLER_15_43
*1297 FILLER_15_54
*1298 FILLER_15_56
*1299 FILLER_15_61
*1300 FILLER_15_70
*1301 FILLER_15_79
*1302 FILLER_15_92
*1303 FILLER_15_129
*1304 FILLER_15_147
*1305 FILLER_15_149
*1306 FILLER_16_11
*1307 FILLER_16_13
*1308 FILLER_16_44
*1309 FILLER_16_59
*1310 FILLER_16_136
*1311 FILLER_17_1
*1312 FILLER_17_5
*1313 FILLER_17_11
*1314 FILLER_17_16
*1315 FILLER_17_28
*1316 FILLER_17_60
*1317 FILLER_17_148
*1318 FILLER_18_1
*1319 FILLER_18_19
*1320 FILLER_18_37
*1321 FILLER_18_70
*1322 FILLER_18_79
*1323 FILLER_18_100
*1324 FILLER_18_117
*1325 FILLER_18_146
*1326 FILLER_18_155
*1327 FILLER_18_164
*1328 FILLER_19_1
*1329 FILLER_19_9
*1330 FILLER_19_11
*1331 FILLER_19_80
*1332 FILLER_19_128
*1333 FILLER_19_146
*1334 FILLER_20_1
*1335 FILLER_20_33
*1336 FILLER_20_41
*1337 FILLER_20_65
*1338 FILLER_20_76
*1339 FILLER_20_153
*1340 FILLER_20_160
*1341 FILLER_21_1
*1342 FILLER_21_33
*1343 FILLER_21_49
*1344 FILLER_21_51
*1345 FILLER_21_58
*1346 FILLER_21_78
*1347 FILLER_21_82
*1348 FILLER_21_86
*1349 FILLER_21_108
*1350 FILLER_21_158

*PORTS
clk I
req_msg[0] I
req_msg[10] I
req_msg[11] I
req_msg[12] I
req_msg[13] I
req_msg[14] I
req_msg[15] I
req_msg[16] I
req_msg[17] I
req_msg[18] I
req_msg[19] I
req_msg[1] I
req_msg[20] I
req_msg[21] I
req_msg[22] I
req_msg[23] I
req_msg[24] I
req_msg[25] I
req_msg[26] I
req_msg[27] I
req_msg[28] I
req_msg[29] I
req_msg[2] I
req_msg[30] I
req_msg[31] I
req_msg[3] I
req_msg[4] I
req_msg[5] I
req_msg[6] I
req_msg[7] I
req_msg[8] I
req_msg[9] I
req_rdy O
req_val I
reset I
resp_msg[0] O
resp_msg[10] O
resp_msg[11] O
resp_msg[12] O
resp_msg[13] O
resp_msg[14] O
resp_msg[15] O
resp_msg[1] O
resp_msg[2] O
resp_msg[3] O
resp_msg[4] O
resp_msg[5] O
resp_msg[6] O
resp_msg[7] O
resp_msg[8] O
resp_msg[9] O
resp_rdy I
resp_val O

*D_NET *1 0.000440095
*CONN
*I *902:D I *D DFF_X1
*I *609:ZN O *D OAI21_X1
*CAP
1 *902:D 9.1721e-05
2 *609:ZN 9.1721e-05
3 *902:D *892:B 3.78433e-05
4 *902:D *991:A 0
5 *902:D *1062:A 9.44188e-05
6 *902:D *1100:A 2.39679e-06
7 *902:D *4:255 0
8 *902:D *352:14 3.24108e-07
9 *902:D *451:12 6.84295e-05
10 *902:D *451:119 0
11 *902:D *481:134 3.0175e-05
12 *902:D *559:21 2.30657e-05
*RES
1 *609:ZN *902:D 33.5 
*END

*D_NET *2 6.83641e-05
*CONN
*I *903:D I *D DFF_X1
*I *605:ZN O *D INV_X1
*CAP
1 *903:D 3.4182e-05
2 *605:ZN 3.4182e-05
*RES
1 *605:ZN *903:D 13.6429 
*END

*D_NET *3 0.000853546
*CONN
*I *904:D I *D DFF_X1
*I *597:ZN O *D NOR2_X1
*CAP
1 *904:D 0.000138335
2 *597:ZN 0.000138335
3 *904:D *902:CK 3.83453e-06
4 *904:D *903:CK 4.33419e-06
5 *904:D *352:14 0.000158602
6 *904:D *382:6 0
7 *904:D *451:119 0.000345786
8 *904:D *454:136 7.4751e-06
9 *904:D *454:147 7.66675e-07
10 *904:D *531:72 1.19024e-05
11 *904:D *559:21 1.25735e-05
12 *904:D *559:197 3.15999e-05
*RES
1 *597:ZN *904:D 44.8929 
*END

*D_NET *4 0.00999622
*CONN
*I *839:A2 I *D AND4_X1
*I *834:A2 I *D AND4_X1
*I *829:A2 I *D AND4_X1
*I *824:A2 I *D AND4_X1
*I *844:A2 I *D AND4_X1
*I *600:A3 I *D AND3_X1
*I *869:A I *D OAI21_X4
*I *855:A2 I *D AND4_X1
*I *850:A2 I *D AND4_X1
*I *859:A2 I *D AND4_X1
*I *788:A2 I *D NAND2_X1
*I *864:A2 I *D AND4_X1
*I *757:A3 I *D AND3_X1
*I *816:B1 I *D AOI21_X1
*I *809:A2 I *D AND3_X1
*I *755:A2 I *D NAND2_X1
*I *820:A3 I *D NAND3_X1
*I *804:A2 I *D AND4_X1
*I *799:A2 I *D AND4_X1
*I *902:QN O *D DFF_X1
*CAP
1 *839:A2 0
2 *834:A2 7.04174e-05
3 *829:A2 3.08563e-05
4 *824:A2 6.67443e-05
5 *844:A2 4.55413e-05
6 *600:A3 7.99469e-05
7 *869:A 0
8 *855:A2 0
9 *850:A2 3.40419e-05
10 *859:A2 1.3693e-05
11 *788:A2 0.000154914
12 *864:A2 1.7725e-05
13 *757:A3 3.75797e-05
14 *816:B1 0
15 *809:A2 0.00012763
16 *755:A2 3.06524e-05
17 *820:A3 0
18 *804:A2 0.000113414
19 *799:A2 1.08494e-05
20 *902:QN 3.70933e-05
21 *4:298 0.000114396
22 *4:287 0.000208331
23 *4:281 0.000220214
24 *4:268 0.000163863
25 *4:255 0.000139956
26 *4:185 0.000215549
27 *4:142 0.000257845
28 *4:132 0.000221346
29 *4:115 0.000230483
30 *4:104 0.000400113
31 *4:63 0.000461858
32 *4:42 0.000231916
33 *4:34 0.000327433
34 *4:32 0.000263902
35 *4:28 0.000203373
36 *4:22 0.000139541
37 *4:18 0.000146483
38 *4:8 0.00015466
39 *600:A3 *600:A2 2.75346e-06
40 *600:A3 *602:A1 0
41 *600:A3 *602:A3 1.43238e-06
42 *600:A3 *609:B1 6.30225e-05
43 *600:A3 *843:A2 4.92161e-05
44 *600:A3 *843:A3 2.25681e-05
45 *600:A3 *59:12 0
46 *755:A2 *755:A1 9.16014e-06
47 *755:A2 *69:56 0
48 *755:A2 *536:47 8.26038e-06
49 *755:A2 *558:98 7.10056e-06
50 *757:A3 *753:A2 1.28122e-06
51 *757:A3 *757:A1 1.87637e-06
52 *757:A3 *757:A2 2.75346e-06
53 *757:A3 *772:A 3.94232e-06
54 *757:A3 *777:B2 1.07441e-05
55 *757:A3 *454:58 7.72792e-06
56 *788:A2 *706:A1 4.75408e-06
57 *788:A2 *787:A4 1.77144e-06
58 *788:A2 *788:A1 1.53342e-05
59 *788:A2 *790:B 4.80114e-06
60 *788:A2 *481:64 0.000118406
61 *799:A2 *592:A4 0
62 *799:A2 *593:A4 7.16188e-07
63 *799:A2 *799:A1 2.39679e-06
64 *799:A2 *999:A 8.03358e-06
65 *799:A2 *216:24 8.43215e-07
66 *804:A2 *705:A 0
67 *804:A2 *711:B 1.83411e-06
68 *804:A2 *765:B1 2.22456e-05
69 *804:A2 *800:A 0
70 *804:A2 *804:A4 4.21607e-06
71 *804:A2 *1102:A 2.27133e-05
72 *804:A2 *409:14 0.000180926
73 *809:A2 *807:A2 9.57492e-07
74 *809:A2 *809:A1 1.21774e-06
75 *809:A2 *811:A 6.76399e-05
76 *809:A2 *811:B1 2.78969e-05
77 *809:A2 *811:B2 1.86729e-05
78 *809:A2 *812:A2 2.75346e-06
79 *809:A2 *813:A 0
80 *809:A2 *816:B2 2.75346e-06
81 *809:A2 *1033:A 1.91498e-06
82 *809:A2 *1070:A 1.87637e-06
83 *809:A2 *250:14 4.81438e-05
84 *809:A2 *481:16 3.29051e-05
85 *809:A2 *481:38 7.72792e-06
86 *809:A2 *554:6 1.87392e-05
87 *809:A2 *554:32 6.24292e-06
88 *809:A2 *559:315 7.18184e-06
89 *824:A2 *623:B 1.6665e-05
90 *824:A2 *635:B2 0
91 *824:A2 *824:A1 2.75346e-06
92 *824:A2 *824:A4 1.20393e-05
93 *824:A2 *1056:A 7.19036e-06
94 *824:A2 *458:90 5.38637e-07
95 *824:A2 *480:6 0
96 *829:A2 *824:A4 1.80284e-05
97 *829:A2 *829:A1 2.38892e-05
98 *829:A2 *82:8 4.37715e-05
99 *829:A2 *458:90 1.13365e-05
100 *829:A2 *458:107 1.61249e-06
101 *829:A2 *460:33 3.23723e-07
102 *829:A2 *509:48 1.22987e-05
103 *834:A2 *623:A 1.91667e-07
104 *834:A2 *830:A 5.51848e-05
105 *834:A2 *832:A 9.05228e-06
106 *834:A2 *832:B1 5.29654e-07
107 *834:A2 *834:A1 2.39679e-06
108 *834:A2 *834:A3 6.40415e-05
109 *834:A2 *913:D 1.045e-05
110 *834:A2 *428:10 0
111 *834:A2 *460:29 5.0244e-05
112 *834:A2 *481:215 1.34815e-06
113 *834:A2 *516:98 2.41023e-05
114 *844:A2 *844:A1 2.75346e-06
115 *844:A2 *844:A3 2.40703e-05
116 *844:A2 *916:D 2.39679e-06
117 *844:A2 *59:12 9.52799e-06
118 *844:A2 *454:136 1.9243e-05
119 *844:A2 *458:82 2.17713e-06
120 *850:A2 *850:A1 2.39679e-06
121 *850:A2 *850:A3 2.23558e-05
122 *850:A2 *855:A3 2.40827e-06
123 *850:A2 *858:A2 1.434e-05
124 *850:A2 *481:134 4.61741e-05
125 *859:A2 *859:A1 1.85634e-05
126 *859:A2 *860:A 2.79069e-06
127 *859:A2 *860:B1 1.07471e-05
128 *859:A2 *461:30 7.72792e-06
129 *859:A2 *461:79 1.0303e-05
130 *864:A2 *592:A4 2.39679e-06
131 *864:A2 *686:A1 2.43678e-05
132 *864:A2 *863:A1 2.08098e-06
133 *864:A2 *864:A4 4.85236e-06
134 *864:A2 *519:35 7.72792e-06
135 *4:8 *606:A 1.78043e-05
136 *4:8 *892:B 3.83453e-06
137 *4:8 *991:A 4.30918e-06
138 *4:8 *1062:A 3.51992e-06
139 *4:8 *299:10 0
140 *4:18 *855:A4 0
141 *4:18 *856:A 3.05388e-05
142 *4:18 *856:B2 0
143 *4:18 *892:B 3.19164e-07
144 *4:18 *991:A 1.21774e-06
145 *4:18 *1062:A 4.32144e-07
146 *4:18 *63:24 4.79722e-05
147 *4:18 *299:10 4.14652e-05
148 *4:18 *454:113 8.25592e-06
149 *4:18 *454:136 7.34947e-06
150 *4:18 *458:71 0
151 *4:18 *531:103 0
152 *4:22 *855:A3 2.75346e-06
153 *4:22 *856:A 3.51536e-06
154 *4:22 *1062:A 0
155 *4:22 *454:105 0
156 *4:28 *851:B1 2.52965e-06
157 *4:28 *855:A1 1.87418e-05
158 *4:28 *855:A3 4.80147e-05
159 *4:28 *858:A2 2.79069e-06
160 *4:28 *454:105 0
161 *4:28 *481:94 0
162 *4:28 *481:134 3.61968e-05
163 *4:28 *565:12 5.73913e-06
164 *4:32 *858:A1 0.000134808
165 *4:32 *454:99 1.24586e-05
166 *4:32 *481:85 1.30576e-05
167 *4:34 *697:A 3.87205e-05
168 *4:34 *858:A1 8.83177e-05
169 *4:34 *454:14 1.01261e-05
170 *4:34 *454:80 2.33532e-06
171 *4:34 *458:37 0.000197358
172 *4:34 *481:85 6.36117e-06
173 *4:42 *592:A4 7.80774e-06
174 *4:42 *593:A4 3.38205e-05
175 *4:42 *786:A1 4.6441e-05
176 *4:42 *1006:A 1.11168e-06
177 *4:42 *121:20 0
178 *4:42 *226:12 3.53311e-05
179 *4:42 *454:14 1.97028e-05
180 *4:42 *481:64 5.45384e-06
181 *4:42 *557:12 4.89501e-06
182 *4:42 *560:27 1.3299e-07
183 *4:63 *706:A1 2.47442e-06
184 *4:63 *1006:A 1.66135e-07
185 *4:63 *226:12 1.34493e-05
186 *4:63 *558:78 0.000199915
187 *4:104 *700:A1 1.17192e-05
188 *4:104 *705:A 0
189 *4:104 *768:A 3.03783e-06
190 *4:104 *814:A2 4.73843e-06
191 *4:104 *819:B2 4.79326e-06
192 *4:104 *820:A1 3.16253e-06
193 *4:104 *820:A2 1.37673e-05
194 *4:104 *821:A2 1.28122e-06
195 *4:104 *822:B 2.86102e-06
196 *4:104 *1028:A 1.51193e-05
197 *4:104 *63:45 7.57002e-05
198 *4:104 *150:8 2.07355e-05
199 *4:104 *151:10 7.16188e-07
200 *4:104 *211:43 4.16281e-06
201 *4:104 *409:14 0.000131486
202 *4:104 *516:8 5.25272e-06
203 *4:104 *523:36 1.83735e-05
204 *4:115 *820:A2 2.75346e-06
205 *4:115 *821:A1 0
206 *4:115 *821:B2 0
207 *4:115 *359:8 3.46927e-06
208 *4:115 *454:58 0.000109758
209 *4:115 *536:47 7.66675e-07
210 *4:132 *756:C1 6.84316e-05
211 *4:132 *772:A 3.30629e-05
212 *4:132 *454:58 6.50002e-05
213 *4:132 *536:47 3.98672e-06
214 *4:142 *772:A 5.18569e-06
215 *4:142 *772:B2 4.15369e-06
216 *4:142 *776:A1 2.31505e-05
217 *4:142 *776:A2 7.59055e-06
218 *4:142 *777:B2 1.12308e-05
219 *4:142 *816:B2 1.40196e-05
220 *4:142 *818:A 2.21194e-06
221 *4:142 *69:56 0
222 *4:142 *69:75 1.46266e-05
223 *4:142 *239:12 3.94861e-05
224 *4:142 *481:14 3.15686e-05
225 *4:142 *481:16 2.75346e-06
226 *4:142 *516:75 1.78252e-06
227 *4:142 *529:23 2.7613e-05
228 *4:142 *558:98 0
229 *4:185 *686:A1 0.000106489
230 *4:185 *697:A 1.58726e-05
231 *4:185 *785:A1 1.20206e-05
232 *4:185 *864:A4 6.85627e-06
233 *4:255 *606:A 1.50247e-05
234 *4:255 *1017:A 3.57342e-06
235 *4:255 *63:18 7.95564e-05
236 *4:268 *606:A 1.87885e-05
237 *4:268 *63:18 8.88417e-05
238 *4:281 *606:A 9.09058e-06
239 *4:281 *1054:A 7.51586e-05
240 *4:281 *63:18 0.000124409
241 *4:281 *458:82 4.47034e-06
242 *4:281 *513:10 5.3313e-05
243 *4:281 *516:129 1.64525e-05
244 *4:281 *543:18 7.77127e-06
245 *4:287 *839:A1 2.39679e-06
246 *4:287 *839:A3 3.37334e-05
247 *4:287 *844:A3 1.63169e-05
248 *4:287 *1084:A 0
249 *4:287 *101:12 9.77901e-07
250 *4:287 *458:82 6.61536e-06
251 *4:287 *458:90 0.000417571
252 *4:287 *460:29 0.000429053
253 *4:287 *543:18 0
254 *4:298 *623:A 5.20238e-07
255 *4:298 *458:90 4.26902e-05
256 *4:298 *460:29 5.03973e-05
257 *902:D *4:255 0
*RES
1 *902:QN *4:8 9.67857 
2 *4:8 *4:18 21 
3 *4:18 *4:22 6.35715 